@<TRIPOS>MOLECULE
methane.pdb
 5 4 0 0 0
SMALL
GASTEIGER

@<TRIPOS>ATOM
      1  C1         0.0000    0.0000    0.0000 C.3   900  UNK900     -0.0776
      2  H1        -0.3630   -0.5140    0.8900 H     900  UNK900      0.0194
      3  H2        -0.3630    1.0280    0.0000 H     900  UNK900      0.0194
      4  H3        -0.3630   -0.5140   -0.8900 H     900  UNK900      0.0194
      5  H4         1.0900    0.0000    0.0000 H     900  UNK900      0.0194
@<TRIPOS>BOND
     1     1     2    1
     2     1     3    1
     3     1     4    1
     4     1     5    1
