@<TRIPOS>MOLECULE
*****
 29 31 0 0 0
SMALL
GASTEIGER

@<TRIPOS>ATOM
      1 H           1.2165   -0.4429    2.4387 H       1  UNL111      0.0624
      2 C           0.6688   -0.3638    1.5047 C.ar    1  UNL111     -0.0526
      3 C          -0.7158   -0.4553    1.4926 C.ar    1  UNL111     -0.0608
      4 H          -1.2567   -0.6005    2.4239 H       1  UNL111      0.0618
      5 C          -1.4137   -0.3550    0.2911 C.ar    1  UNL111     -0.0563
      6 H          -2.4990   -0.3992    0.3590 H       1  UNL111      0.0621
      7 C          -0.7870   -0.1953   -0.9743 C.ar    1  UNL111     -0.0204
      8 C           0.6208   -0.0232   -0.9006 C.ar    1  UNL111      0.0499
      9 N           1.5628    0.2848   -1.8636 N.ar    1  UNL111     -0.3604
     10 C           1.3460   -0.1227    0.2982 C.ar    1  UNL111     -0.0001
     11 C           2.7249    0.0644    0.0019 C.ar    1  UNL111     -0.0367
     12 C           2.8273    0.3154   -1.3411 C.ar    1  UNL111      0.0027
     13 C          -1.6808   -0.1238   -2.2196 C.3     1  UNL11      -0.0139
     14 H          -2.1018    0.8888   -2.2472 H       1  UNL11       0.0349
     15 C          -1.0629   -0.4684   -3.5839 C.3     1  UNL11      -0.0461
     16 H          -1.7485   -0.1335   -4.3757 H       1  UNL11       0.0271
     17 H          -0.1100   -0.0060   -3.8192 H       1  UNL11       0.0271
     18 C          -1.0009   -1.9914   -3.6150 C.3     1  UNL11      -0.0525
     19 H          -1.0693   -2.3752   -4.6377 H       1  UNL11       0.0265
     20 H          -0.0578   -2.3501   -3.1876 H       1  UNL11       0.0265
     21 C          -2.1740   -2.4526   -2.7545 C.3     1  UNL11      -0.0525
     22 H          -2.8899   -3.0509   -3.3270 H       1  UNL11       0.0265
     23 H          -1.8114   -3.0718   -1.9262 H       1  UNL11       0.0265
     24 C          -2.8205   -1.1714   -2.2286 C.3     1  UNL11      -0.0461
     25 H          -3.5948   -0.8493   -2.9387 H       1  UNL11       0.0271
     26 H          -3.3312   -1.3431   -1.2796 H       1  UNL11       0.0271
     27 H           3.5456    0.0374    0.7063 H       1  UNL1        0.0638
     28 H           3.6827    0.5292   -1.9673 H       1  UNL1        0.0807
     29 H           1.3640    0.4925   -2.8271 H       1  UNL1        0.1653
@<TRIPOS>BOND
     1     1     2    1
     2     2     3   ar
     3     2    10   ar
     4     3     4    1
     5     3     5   ar
     6     5     6    1
     7     5     7   ar
     8     7     8   ar
     9     8     9   ar
    10     8    10   ar
    11    10    11   ar
    12    11    12   ar
    13     9    12   ar
    14    13    14    1
    15    13    15    1
    16    13    24    1
    17    15    16    1
    18    15    17    1
    19    15    18    1
    20    18    19    1
    21    18    20    1
    22    18    21    1
    23    21    22    1
    24    21    23    1
    25    21    24    1
    26    24    25    1
    27    24    26    1
    28     7    13    1
    29    11    27    1
    30    12    28    1
    31     9    29    1
