@<TRIPOS>MOLECULE
28
 53 56 0 0 0
SMALL
GASTEIGER
****
Schrodinger Suite 2021-2.
@<TRIPOS>ATOM
      1 C           1.3901   29.1077    6.7935 C.ar    1  UNL1        0.2246
      2 C          -1.6911   31.9130    8.0794 C.ar    1  UNL1        0.0958
      3 C          -0.7437   26.3748    8.8319 C.3     1  UNL1        0.0941
      4 C          -1.3142   25.5567    9.9914 C.3     1  UNL1       -0.0067
      5 C          -1.1214   24.0589    9.6854 C.3     1  UNL1       -0.0471
      6 C          -1.5824   23.1795   10.8502 C.3     1  UNL1       -0.0527
      7 C          -0.8551   23.5463   12.1491 C.3     1  UNL1       -0.0530
      8 C          -1.0780   25.0277   12.4857 C.3     1  UNL1       -0.0527
      9 C          -0.6321   25.9351   11.3273 C.3     1  UNL1       -0.0471
     10 C           4.6903   25.7129    5.8380 C.ar    1  UNL1       -0.0336
     11 C           4.6667   25.1395    7.1233 C.ar    1  UNL1        0.1053
     12 C           3.9496   25.7658    8.1576 C.ar    1  UNL1       -0.0336
     13 C           3.2460   26.9556    7.8985 C.ar    1  UNL1       -0.0386
     14 N           0.6302   28.2313    7.4508 N.ar    1  UNL1       -0.1773
     15 C          -0.4898   28.6252    8.0923 C.ar    1  UNL1        0.2476
     16 O          -1.1796   27.7315    8.8832 O.3     1  UNL1       -0.4745
     17 C          -0.8660   29.9818    8.0000 C.ar    1  UNL1        0.1690
     18 N          -1.9251   30.7129    8.5212 N.ar    1  UNL1       -0.2289
     19 N          -0.5542   32.0464    7.3306 N.ar    1  UNL1       -0.3291
     20 C          -0.0249   30.7863    7.2610 C.ar    1  UNL1        0.1665
     21 N           1.1172   30.4049    6.6113 N.ar    1  UNL1       -0.1946
     22 N           2.5827   28.6807    6.3360 N.pl3   1  UNL1       -0.2835
     23 C           3.2365   27.5251    6.6032 C.ar    1  UNL1        0.0337
     24 C           3.9871   26.9068    5.5819 C.ar    1  UNL1       -0.0386
     25 H          -2.3542   32.7337    8.2866 H       1  UNL1        0.1027
     26 H           0.3421   26.2813    8.8885 H       1  UNL1        0.0700
     27 H          -1.0533   25.9544    7.8735 H       1  UNL1        0.0700
     28 H          -2.3846   25.7536   10.0698 H       1  UNL1        0.0334
     29 H          -1.6745   23.7903    8.7850 H       1  UNL1        0.0269
     30 H          -0.0713   23.8531    9.4740 H       1  UNL1        0.0269
     31 H          -2.6489   23.3294   10.9949 H       1  UNL1        0.0265
     32 H          -1.4335   22.1247   10.6147 H       1  UNL1        0.0265
     33 H          -1.2175   22.9242   12.9680 H       1  UNL1        0.0265
     34 H           0.2126   23.3446   12.0504 H       1  UNL1        0.0265
     35 H          -2.1337   25.2025   12.7004 H       1  UNL1        0.0265
     36 H          -0.5350   25.2900   13.3929 H       1  UNL1        0.0265
     37 H           0.4518   25.8639   11.2223 H       1  UNL1        0.0269
     38 H          -0.8463   26.9766   11.5731 H       1  UNL1        0.0269
     39 H           5.2554   25.2427    5.0475 H       1  UNL1        0.0638
     40 H           3.9402   25.3397    9.1502 H       1  UNL1        0.0638
     41 H           2.7083   27.4238    8.7079 H       1  UNL1        0.0637
     42 H          -0.1784   32.8770    6.8845 H       1  UNL1        0.1682
     43 H           3.0167   29.2655    5.6333 H       1  UNL1        0.1550
     44 H           4.0234   27.3389    4.5933 H       1  UNL1        0.0637
     45 S           5.4311   23.8790    7.4001 S.O2    1  UNL1        0.0582
     46 O           5.8108   23.2938    6.1199 O.2     1  UNL1       -0.1531
     47 O           6.4234   24.1721    8.4274 O.2     1  UNL1       -0.1531
     48 N           4.3520   22.7432    8.1190 N.3     1  UNL1       -0.1930
     49 H           3.7946   22.1535    7.5176 H       1  UNL1        0.1477
     50 C           4.1627   22.7723    9.5553 C.3     1  UNL1        0.0059
     51 H           3.4517   21.9850    9.8059 H       1  UNL1        0.0405
     52 H           5.1346   22.5937   10.0154 H       1  UNL1        0.0405
     53 H           3.7743   23.7577    9.8125 H       1  UNL1        0.0405
@<TRIPOS>BOND
     1     1    14   ar
     2     1    21   ar
     3     1    22    1
     4     2    18   ar
     5     2    19   ar
     6     2    25    1
     7     3     4    1
     8     3    16    1
     9     3    26    1
    10     3    27    1
    11     4     5    1
    12     4     9    1
    13     4    28    1
    14     5     6    1
    15     5    29    1
    16     5    30    1
    17     6     7    1
    18     6    31    1
    19     6    32    1
    20     7     8    1
    21     7    33    1
    22     7    34    1
    23     8     9    1
    24     8    35    1
    25     8    36    1
    26     9    37    1
    27     9    38    1
    28    10    11   ar
    29    10    24   ar
    30    10    39    1
    31    11    12   ar
    32    11    45    1
    33    12    13   ar
    34    12    40    1
    35    13    23   ar
    36    13    41    1
    37    14    15   ar
    38    15    16    1
    39    15    17   ar
    40    17    18   ar
    41    17    20   ar
    42    19    20   ar
    43    19    42    1
    44    20    21   ar
    45    22    23    1
    46    22    43    1
    47    23    24   ar
    48    24    44    1
    49    45    46    2
    50    45    47    2
    51    45    48    1
    52    48    49    1
    53    48    50    1
    54    50    51    1
    55    50    52    1
    56    50    53    1
