Structure4
                    3D
 Schrodinger Suite 2021-3.
 39 41  0  0  1  0            999 V2000
   -1.9610   21.5500  -27.3300 C   0  0  0  0  0  0
   -1.2940   22.4120  -28.1960 C   0  0  0  0  0  0
   -1.9550   22.9520  -29.2940 C   0  0  0  0  0  0
   -3.3000   22.6220  -29.5430 C   0  0  0  0  0  0
   -3.9690   21.7590  -28.6530 C   0  0  0  0  0  0
   -3.2920   21.2290  -27.5620 C   0  0  0  0  0  0
   -5.6400   21.3530  -28.9190 Cl  0  0  0  0  0  0
   -4.0400   23.1520  -30.7110 C   0  0  0  0  0  0
   -4.2270   22.4200  -31.6690 O   0  0  0  0  0  0
   -4.5130   24.4120  -30.6480 N   0  0  0  0  0  0
   -5.2870   25.1110  -31.5800 C   0  0  0  0  0  0
   -5.9620   24.5480  -32.6810 C   0  0  0  0  0  0
   -6.7810   25.3610  -33.4590 C   0  0  0  0  0  0
   -6.9230   26.6540  -33.1830 N   0  0  0  0  0  0
   -6.2980   27.2320  -32.1580 C   0  0  0  0  0  0
   -5.5070   26.4570  -31.3070 C   0  0  0  0  0  0
   -6.5295   28.5980  -31.8755 N   0  0  0  0  0  0
   -5.7029   29.4536  -31.2554 C   0  0  0  0  0  0
   -4.5975   29.1369  -30.8252 O   0  0  0  0  0  0
   -6.1635   30.9111  -31.1617 C   0  0  0  0  0  0
   -1.1120   24.0510  -30.3320 Cl  0  0  0  0  0  0
   -6.9281   31.1063  -31.9128 H   0  0  0  0  0  0
   -1.4440   21.1320  -26.4790 H   0  0  0  0  0  0
   -0.2590   22.6640  -28.0160 H   0  0  0  0  0  0
   -3.8110   20.5610  -26.8910 H   0  0  0  0  0  0
   -4.3170   24.9850  -29.8390 H   0  0  0  0  0  0
   -5.8400   23.4990  -32.9090 H   0  0  0  0  0  0
   -7.3120   24.9440  -34.3020 H   0  0  0  0  0  0
   -5.0640   26.9090  -30.4310 H   0  0  0  0  0  0
   -7.4386   28.9445  -32.1626 H   0  0  0  0  0  0
   -5.0397   31.9210  -31.3324 C   0  0  0  0  0  0
   -6.6273   31.0770  -30.1928 H   0  0  0  0  0  0
   -5.1923   33.3220  -30.7841 C   0  0  0  0  0  0
   -4.5066   31.8263  -32.2751 H   0  0  0  0  0  0
   -4.2042   32.3691  -30.1536 C   0  0  0  0  0  0
   -6.1043   33.5449  -30.2310 H   0  0  0  0  0  0
   -4.7964   34.1477  -31.3692 H   0  0  0  0  0  0
   -3.1444   32.5446  -30.3239 H   0  0  0  0  0  0
   -4.4515   31.9548  -29.1771 H   0  0  0  0  0  0
  1  2  1  0  0  0
  1  6  2  0  0  0
  1 23  1  0  0  0
  2  3  2  0  0  0
  2 24  1  0  0  0
  3  4  1  0  0  0
  3 21  1  0  0  0
  4  5  2  0  0  0
  4  8  1  0  0  0
  5  6  1  0  0  0
  5  7  1  0  0  0
  6 25  1  0  0  0
  8  9  2  0  0  0
  8 10  1  0  0  0
 10 11  1  0  0  0
 10 26  1  0  0  0
 11 12  1  0  0  0
 11 16  2  0  0  0
 12 13  2  0  0  0
 12 27  1  0  0  0
 13 14  1  0  0  0
 13 28  1  0  0  0
 14 15  2  0  0  0
 15 16  1  0  0  0
 15 17  1  0  0  0
 16 29  1  0  0  0
 17 18  1  0  0  0
 17 30  1  0  0  0
 18 19  2  0  0  0
 18 20  1  0  0  0
 20 22  1  0  0  0
 20 31  1  0  0  0
 20 32  1  0  0  0
 31 33  1  0  0  0
 31 34  1  0  0  0
 31 35  1  0  0  0
 33 35  1  0  0  0
 33 36  1  0  0  0
 33 37  1  0  0  0
 35 38  1  0  0  0
 35 39  1  0  0  0
M  END
> <i_m_stars>
0

> <s_m_entry_id>
4

> <s_m_entry_name>
Structure4

> <s_pdb_PDB_TITLE>
tyk2_4gih_a_NP_003322_prot_ref

> <s_pdb_PDB_format_version>
3.0

> <s_m_Source_Path>
/site/raid1/johannes/rbfe-data/tyk2/ejm_42

> <s_m_Source_File>
protein_ejm_42.pdb

> <i_m_Source_File_Index>
1

$$$$
