@<TRIPOS>MOLECULE
Structure4
 39 41 0 0 0
SMALL
GASTEIGER
****
Schrodinger Suite 2021-3.
@<TRIPOS>ATOM
      1 C          -1.9610   21.5500  -27.3300 C.ar    1  UNL1       -0.0590
      2 C          -1.2940   22.4120  -28.1960 C.ar    1  UNL1       -0.0426
      3 C          -1.9550   22.9520  -29.2940 C.ar    1  UNL1        0.0545
      4 C          -3.3000   22.6220  -29.5430 C.ar    1  UNL1        0.0735
      5 C          -3.9690   21.7590  -28.6530 C.ar    1  UNL1        0.0545
      6 C          -3.2920   21.2290  -27.5620 C.ar    1  UNL1       -0.0426
      7 CL         -5.6400   21.3530  -28.9190 Cl      1  UNL1       -0.0827
      8 C          -4.0400   23.1520  -30.7110 C.2     1  UNL1        0.2511
      9 O          -4.2270   22.4200  -31.6690 O.2     1  UNL1       -0.2698
     10 N          -4.5130   24.4120  -30.6480 N.am    1  UNL1       -0.2813
     11 C          -5.2870   25.1110  -31.5800 C.ar    1  UNL1        0.0384
     12 C          -5.9620   24.5480  -32.6810 C.ar    1  UNL1       -0.0222
     13 C          -6.7810   25.3610  -33.4590 C.ar    1  UNL1        0.0314
     14 N          -6.9230   26.6540  -33.1830 N.ar    1  UNL1       -0.2400
     15 C          -6.2980   27.2320  -32.1580 C.ar    1  UNL1        0.1266
     16 C          -5.5070   26.4570  -31.3070 C.ar    1  UNL1       -0.0003
     17 N          -6.5295   28.5980  -31.8755 N.am    1  UNL1       -0.2703
     18 C          -5.7029   29.4536  -31.2554 C.2     1  UNL1        0.2185
     19 O          -4.5975   29.1369  -30.8252 O.2     1  UNL1       -0.2754
     20 C          -6.1635   30.9111  -31.1617 C.3     1  UNL1        0.0271
     21 CL         -1.1120   24.0510  -30.3320 Cl      1  UNL1       -0.0827
     22 H          -6.9281   31.1063  -31.9128 H       1  UNL1        0.0361
     23 H          -1.4440   21.1320  -26.4790 H       1  UNL1        0.0618
     24 H          -0.2590   22.6640  -28.0160 H       1  UNL1        0.0632
     25 H          -3.8110   20.5610  -26.8910 H       1  UNL1        0.0632
     26 H          -4.3170   24.9850  -29.8390 H       1  UNL1        0.1551
     27 H          -5.8400   23.4990  -32.9090 H       1  UNL1        0.0651
     28 H          -7.3120   24.9440  -34.3020 H       1  UNL1        0.0831
     29 H          -5.0640   26.9090  -30.4310 H       1  UNL1        0.0671
     30 H          -7.4386   28.9445  -32.1626 H       1  UNL1        0.1562
     31 C          -5.0397   31.9210  -31.3324 C.3     1  UNL1       -0.0328
     32 H          -6.6273   31.0770  -30.1928 H       1  UNL1        0.0361
     33 C          -5.1923   33.3220  -30.7841 C.3     1  UNL1       -0.0495
     34 H          -4.5066   31.8263  -32.2751 H       1  UNL1        0.0305
     35 C          -4.2042   32.3691  -30.1536 C.3     1  UNL1       -0.0495
     36 H          -6.1043   33.5449  -30.2310 H       1  UNL1        0.0268
     37 H          -4.7964   34.1477  -31.3692 H       1  UNL1        0.0268
     38 H          -3.1444   32.5446  -30.3239 H       1  UNL1        0.0268
     39 H          -4.4515   31.9548  -29.1771 H       1  UNL1        0.0268
@<TRIPOS>BOND
     1     1     2   ar
     2     1     6   ar
     3     1    23    1
     4     2     3   ar
     5     2    24    1
     6     3     4   ar
     7     3    21    1
     8     4     5   ar
     9     4     8    1
    10     5     6   ar
    11     5     7    1
    12     6    25    1
    13     8     9    2
    14     8    10   am
    15    10    11    1
    16    10    26    1
    17    11    12   ar
    18    11    16   ar
    19    12    13   ar
    20    12    27    1
    21    13    14   ar
    22    13    28    1
    23    14    15   ar
    24    15    16   ar
    25    15    17    1
    26    16    29    1
    27    17    18   am
    28    17    30    1
    29    18    19    2
    30    18    20    1
    31    20    22    1
    32    20    31    1
    33    20    32    1
    34    31    33    1
    35    31    34    1
    36    31    35    1
    37    33    35    1
    38    33    36    1
    39    33    37    1
    40    35    38    1
    41    35    39    1
