1a0q_ligand
  Mrv15b2311022106472D          

 23 23  0  0  0  0            999 V2000
    7.1138   10.8970    0.0000 C   0  0  2  0  0  0  0  0  0  0  0  0
    7.1138   11.7220    0.0000 C   0  0  0  0  0  0  0  0  0  0  0  0
    7.8283   12.1345    0.0000 C   0  0  0  0  0  0  0  0  0  0  0  0
    7.8283   12.9595    0.0000 C   0  0  0  0  0  0  0  0  0  0  0  0
    8.5427   13.3720    0.0000 C   0  0  0  0  0  0  0  0  0  0  0  0
    4.9704   11.3095    0.0000 C   0  0  0  0  0  0  0  0  0  0  0  0
    4.2559   11.7220    0.0000 C   0  0  0  0  0  0  0  0  0  0  0  0
    3.5414   11.3095    0.0000 C   0  0  0  0  0  0  0  0  0  0  0  0
    3.5414   10.4845    0.0000 C   0  0  0  0  0  0  0  0  0  0  0  0
    4.2559   10.0720    0.0000 C   0  0  0  0  0  0  0  0  0  0  0  0
    4.9704   10.4845    0.0000 C   0  0  0  0  0  0  0  0  0  0  0  0
    8.5427   10.8970    0.0000 C   0  0  0  0  0  0  0  0  0  0  0  0
    9.9717   10.8970    0.0000 C   0  0  0  0  0  0  0  0  0  0  0  0
    9.2572   10.4845    0.0000 C   0  0  0  0  0  0  0  0  0  0  0  0
   10.6862   10.4845    0.0000 C   0  0  0  0  0  0  0  0  0  0  0  0
    6.8118    9.7701    0.0000 O   0  0  0  0  0  0  0  0  0  0  0  0
    5.9868   11.1990    0.0000 O   0  0  0  0  0  0  0  0  0  0  0  0
    5.6849   10.0720    0.0000 O   0  0  0  0  0  0  0  0  0  0  0  0
    8.5427   11.7220    0.0000 O   0  0  0  0  0  0  0  0  0  0  0  0
   11.4006   10.8970    0.0000 O   0  0  0  0  0  0  0  0  0  0  0  0
   10.6862    9.6595    0.0000 O   0  0  0  0  0  0  0  0  0  0  0  0
    7.8283   10.4845    0.0000 N   0  0  0  0  0  0  0  0  0  0  0  0
    6.3993   10.4845    0.0000 P   0  0  1  0  0  0  0  0  0  0  0  0
  1 23  1  0  0  0  0
  1 22  1  6  0  0  0
  1  2  1  0  0  0  0
  2  3  1  0  0  0  0
  3  4  1  0  0  0  0
  4  5  1  0  0  0  0
 22 12  1  0  0  0  0
 12 19  2  0  0  0  0
 12 14  1  0  0  0  0
 14 13  1  0  0  0  0
 13 15  1  0  0  0  0
 15 20  2  0  0  0  0
 15 21  1  0  0  0  0
 23 16  2  0  0  0  0
 23 17  1  1  0  0  0
 23 18  1  6  0  0  0
 18 11  1  0  0  0  0
 11 10  4  0  0  0  0
 11  6  4  0  0  0  0
  6  7  4  0  0  0  0
  7  8  4  0  0  0  0
  8  9  4  0  0  0  0
  9 10  4  0  0  0  0
M  END
