@<TRIPOS>MOLECULE
1a0q_ligand
 45 45 0 0 0
SMALL
GASTEIGER

@<TRIPOS>ATOM
      1 C          13.3050   20.7000   59.4050 C.3     1  UNL1        0.1360
      2 C          12.4520   19.8420   58.4700 C.3     1  UNL1       -0.0222
      3 C          12.0320   18.5340   59.1240 C.3     1  UNL1       -0.0510
      4 C          11.2470   17.6310   58.1880 C.3     1  UNL1       -0.0558
      5 C          12.1070   17.1040   57.0260 C.3     1  UNL1       -0.0653
      6 C          14.7350   20.9920   55.3470 C.ar    1  UNL1       -0.0195
      7 C          15.1480   21.1380   54.0250 C.ar    1  UNL1       -0.0583
      8 C          16.3840   21.7100   53.7410 C.ar    1  UNL1       -0.0615
      9 C          17.2110   22.1400   54.7700 C.ar    1  UNL1       -0.0583
     10 C          16.7990   21.9980   56.0940 C.ar    1  UNL1       -0.0195
     11 C          15.5620   21.4200   56.3890 C.ar    1  UNL1        0.1299
     12 C          12.7980   20.9330   61.8050 C.2     1  UNL1        0.2142
     13 C          11.7430   20.6960   64.1740 C.3     1  UNL1        0.0530
     14 C          11.8610   21.4970   62.8700 C.3     1  UNL1        0.0340
     15 C          11.1530   19.2930   64.0350 C.2     1  UNL1        0.3052
     16 O          12.9990   22.5100   57.5130 O.2     1  UNL1       -0.2422
     17 O          14.5790   22.9640   59.4710 O.3     1  UNL1       -0.3139
     18 O          15.1750   21.2220   57.7500 O.3     1  UNL1       -0.4228
     19 O          13.7620   20.2300   62.1210 O.2     1  UNL1       -0.2758
     20 O          11.9380   18.3450   64.0180 O.2     1  UNL1       -0.2510
     21 O           9.9630   19.1340   64.3110 O.3     1  UNL1       -0.4806
     22 N          12.4830   21.1820   60.5180 N.am    1  UNL1       -0.3008
     23 P          13.9840   22.0210   58.4990 P.3     1  UNL1        0.3991
     24 H          14.1209   20.1098   59.8222 H       1  UNL1        0.0636
     25 H          13.0452   19.6068   57.5863 H       1  UNL1        0.0289
     26 H          11.5516   20.4026   58.2187 H       1  UNL1        0.0289
     27 H          11.3891   18.7761   59.9703 H       1  UNL1        0.0266
     28 H          12.9373   18.0028   59.4179 H       1  UNL1        0.0266
     29 H          10.4279   18.2128   57.7653 H       1  UNL1        0.0263
     30 H          10.8936   16.7746   58.7623 H       1  UNL1        0.0263
     31 H          12.4856   17.9452   56.4453 H       1  UNL1        0.0230
     32 H          12.9436   16.5309   57.4257 H       1  UNL1        0.0230
     33 H          11.4989   16.4640   56.3868 H       1  UNL1        0.0230
     34 H          13.7665   20.5438   55.5690 H       1  UNL1        0.0654
     35 H          14.5026   20.8040   53.2126 H       1  UNL1        0.0619
     36 H          16.7048   21.8211   52.7052 H       1  UNL1        0.0618
     37 H          18.1789   22.5870   54.5433 H       1  UNL1        0.0619
     38 H          17.4450   22.3395   56.9028 H       1  UNL1        0.0654
     39 H          11.0658   21.2543   64.8204 H       1  UNL1        0.0382
     40 H          12.7572   20.5695   64.5528 H       1  UNL1        0.0382
     41 H          10.8656   21.4978   62.4257 H       1  UNL1        0.0364
     42 H          12.2711   22.4677   63.1487 H       1  UNL1        0.0364
     43 H          15.1947   22.4925   60.0369 H       1  UNL1        0.2208
     44 H           9.5112   19.9802   64.2737 H       1  UNL1        0.2951
     45 H          11.6440   21.7243   60.3121 H       1  UNL1        0.1496
@<TRIPOS>BOND
     1     1    23    1
     2     1    22    1
     3     1     2    1
     4     2     3    1
     5     3     4    1
     6     4     5    1
     7    22    12   am
     8    12    19    2
     9    12    14    1
    10    14    13    1
    11    13    15    1
    12    15    20    2
    13    15    21    1
    14    23    16    2
    15    23    17    1
    16    23    18    1
    17    18    11    1
    18    11    10   ar
    19    11     6   ar
    20     6     7   ar
    21     7     8   ar
    22     8     9   ar
    23     9    10   ar
    24     1    24    1
    25     2    25    1
    26     2    26    1
    27     3    27    1
    28     3    28    1
    29     4    29    1
    30     4    30    1
    31     5    31    1
    32     5    32    1
    33     5    33    1
    34     6    34    1
    35     7    35    1
    36     8    36    1
    37     9    37    1
    38    10    38    1
    39    13    39    1
    40    13    40    1
    41    14    41    1
    42    14    42    1
    43    17    43    1
    44    21    44    1
    45    22    45    1
