@<TRIPOS>MOLECULE
7-cpi.pdb
 29 31 0 0 0
SMALL
GASTEIGER

@<TRIPOS>ATOM
      1 C           0.6690   -0.3640    1.5050 C.ar    1  UNL1       -0.0526
      2 H           1.2160   -0.4430    2.4390 H       1  UNL1        0.0624
      3 C          -0.7160   -0.4550    1.4930 C.ar    1  UNL1       -0.0608
      4 H          -1.2570   -0.6010    2.4240 H       1  UNL1        0.0618
      5 C          -1.4140   -0.3550    0.2910 C.ar    1  UNL1       -0.0563
      6 H          -2.4990   -0.3990    0.3590 H       1  UNL1        0.0621
      7 C          -0.7870   -0.1950   -0.9740 C.ar    1  UNL1       -0.0204
      8 C           0.6210   -0.0230   -0.9010 C.ar    1  UNL1        0.0499
      9 N           1.5630    0.2850   -1.8640 N.ar    1  UNL1       -0.3604
     10 H           1.3640    0.4920   -2.8270 H       1  UNL1        0.1653
     11 C           1.3460   -0.1230    0.2980 C.ar    1  UNL1       -0.0001
     12 C           2.7250    0.0640    0.0020 C.ar    1  UNL1       -0.0367
     13 H           3.5460    0.0370    0.7060 H       1  UNL1        0.0638
     14 C           2.8270    0.3150   -1.3410 C.ar    1  UNL1        0.0027
     15 H           3.6830    0.5290   -1.9670 H       1  UNL1        0.0807
     16 C          -1.6810   -0.1240   -2.2200 C.3     1  UNL1       -0.0139
     17 H          -2.1020    0.8890   -2.2470 H       1  UNL1        0.0349
     18 C          -1.0630   -0.4680   -3.5840 C.3     1  UNL1       -0.0461
     19 H          -1.7480   -0.1340   -4.3760 H       1  UNL1        0.0271
     20 H          -0.1100   -0.0060   -3.8190 H       1  UNL1        0.0271
     21 C          -1.0010   -1.9910   -3.6150 C.3     1  UNL1       -0.0525
     22 H          -1.0690   -2.3750   -4.6380 H       1  UNL1        0.0265
     23 H          -0.0580   -2.3500   -3.1880 H       1  UNL1        0.0265
     24 C          -2.1740   -2.4530   -2.7550 C.3     1  UNL1       -0.0525
     25 H          -2.8900   -3.0510   -3.3270 H       1  UNL1        0.0265
     26 H          -1.8110   -3.0720   -1.9260 H       1  UNL1        0.0265
     27 C          -2.8210   -1.1710   -2.2290 C.3     1  UNL1       -0.0461
     28 H          -3.5950   -0.8490   -2.9390 H       1  UNL1        0.0271
     29 H          -3.3310   -1.3430   -1.2800 H       1  UNL1        0.0271
@<TRIPOS>BOND
     1     1     2    1
     2     1     3   ar
     3     1    11   ar
     4     3     4    1
     5     3     5   ar
     6     5     6    1
     7     5     7   ar
     8     7     8   ar
     9     7    16    1
    10     8     9   ar
    11     8    11   ar
    12     9    14   ar
    13     9    10    1
    14    11    12   ar
    15    12    14   ar
    16    12    13    1
    17    14    15    1
    18    16    17    1
    19    16    18    1
    20    16    27    1
    21    18    19    1
    22    18    20    1
    23    18    21    1
    24    21    22    1
    25    21    23    1
    26    21    24    1
    27    24    25    1
    28    24    26    1
    29    24    27    1
    30    27    28    1
    31    27    29    1
