@<TRIPOS>MOLECULE
BMI_original
 49 53 0 0 0
SMALL
GASTEIGER
****
Structure written by MMmdl.
@<TRIPOS>ATOM
      1 C           3.5880   -3.8720   18.7280 C.ar    1  UNL1        0.2612
      2 O           3.5640   -4.6860   17.8050 O.2     1  UNL1       -0.2671
      3 N           4.4390   -3.6970   22.4420 N.pl3   1  UNL1       -0.3375
      4 N           3.2300   -2.5700   18.5530 N.ar    1  UNL1       -0.3284
      5 C           4.0200   -3.3010   21.1000 C.ar    1  UNL1        0.0448
      6 C           3.6210   -1.9260   20.8290 C.ar    1  UNL1       -0.0239
      7 C           3.2470   -1.6400   19.5650 C.ar    1  UNL1        0.0067
      8 C           5.5900   -3.0520   23.0670 C.3     1  UNL1        0.0515
      9 C           8.7300   -4.2120   21.2890 C.ar    1  UNL1       -0.0586
     10 C           7.5740   -3.4910   21.5870 C.ar    1  UNL1       -0.0388
     11 C           9.1190   -5.2420   22.1430 C.ar    1  UNL1       -0.0436
     12 C           6.8370   -3.8130   22.7250 C.ar    1  UNL1        0.0582
     13 N           7.2040   -4.8140   23.5650 N.ar    1  UNL1       -0.2583
     14 C           8.3320   -5.5080   23.2630 C.ar    1  UNL1        0.0279
     15 C           3.9980   -4.2070   20.0900 C.ar    1  UNL1        0.1022
     16 C           7.2440  -10.8060   23.2540 C.ar    1  UNL1        0.0293
     17 C           5.6950   -9.7500   21.5420 C.ar    1  UNL1        0.0498
     18 C           5.5100   -8.4690   22.0690 C.ar    1  UNL1       -0.0103
     19 N           6.1650  -10.8260   22.4090 N.ar    1  UNL1       -0.3058
     20 C           5.6080  -12.0700   22.5380 C.ar    1  UNL1        0.1004
     21 N           6.2600  -12.8180   23.3980 N.ar    1  UNL1       -0.2437
     22 C           7.2550  -12.0630   23.8400 C.ar    1  UNL1        0.0458
     23 C           5.0590   -7.4530   21.2190 C.ar    1  UNL1        0.0917
     24 N           4.3840   -6.5480   19.3310 N.ar    1  UNL1       -0.3375
     25 C           4.4060   -5.6270   20.3510 C.ar    1  UNL1        0.1463
     26 N           4.8030   -6.1320   21.4940 N.ar    1  UNL1       -0.2274
     27 C           4.8030   -7.7490   19.8560 C.ar    1  UNL1        0.0695
     28 C           4.9850   -9.0260   19.3230 C.ar    1  UNL1       -0.0231
     29 C           5.4370  -10.0180   20.1980 C.ar    1  UNL1       -0.0328
     30 C           4.7110   -9.3300   17.8800 C.3     1  UNL1       -0.0376
     31 H           3.9210   -4.4350   22.9490 H       1  UNL1        0.1465
     32 H           2.9460   -2.3350   17.6130 H       1  UNL1        0.1683
     33 H           3.6240   -1.1710   21.6060 H       1  UNL1        0.0651
     34 H           2.9280   -0.6600   19.2300 H       1  UNL1        0.0808
     35 H           5.4570   -3.0400   24.1490 H       1  UNL1        0.0526
     36 H           5.6770   -2.0290   22.7010 H       1  UNL1        0.0526
     37 H           9.3150   -3.9760   20.4100 H       1  UNL1        0.0619
     38 H           7.2510   -2.6860   20.9410 H       1  UNL1        0.0636
     39 H          10.0090   -5.8220   21.9430 H       1  UNL1        0.0633
     40 H           8.6110   -6.3040   23.9440 H       1  UNL1        0.0829
     41 H           7.8800   -9.9350   23.3580 H       1  UNL1        0.0829
     42 H           5.7110   -8.2640   23.1100 H       1  UNL1        0.0660
     43 H           4.7270  -12.3400   21.9640 H       1  UNL1        0.1032
     44 H           7.9730  -12.4180   24.5710 H       1  UNL1        0.0845
     45 H           4.1020   -6.3260   18.3820 H       1  UNL1        0.1674
     46 H           5.5910  -11.0220   19.8250 H       1  UNL1        0.0641
     47 H           4.9200  -10.3810   17.6840 H       1  UNL1        0.0278
     48 H           3.6660   -9.1190   17.6560 H       1  UNL1        0.0278
     49 H           5.3500   -8.7090   17.2510 H       1  UNL1        0.0278
@<TRIPOS>BOND
     1     1     2    2
     2     1     4   ar
     3     1    15   ar
     4     3     5    1
     5     3     8    1
     6     3    31    1
     7     4     7   ar
     8     4    32    1
     9     5     6   ar
    10     5    15   ar
    11     6     7   ar
    12     6    33    1
    13     7    34    1
    14     8    12    1
    15     8    35    1
    16     8    36    1
    17     9    11   ar
    18     9    10   ar
    19     9    37    1
    20    10    12   ar
    21    10    38    1
    22    11    14   ar
    23    11    39    1
    24    12    13   ar
    25    13    14   ar
    26    14    40    1
    27    15    25    1
    28    16    19   ar
    29    16    22   ar
    30    16    41    1
    31    17    18   ar
    32    17    19    1
    33    17    29   ar
    34    18    23   ar
    35    18    42    1
    36    19    20   ar
    37    20    21   ar
    38    20    43    1
    39    21    22   ar
    40    22    44    1
    41    23    26   ar
    42    23    27   ar
    43    24    25   ar
    44    24    27   ar
    45    24    45    1
    46    25    26   ar
    47    27    28   ar
    48    28    29   ar
    49    28    30    1
    50    29    46    1
    51    30    47    1
    52    30    48    1
    53    30    49    1
