@<TRIPOS>MOLECULE
ejm_42
 35 36 0 0 0
SMALL
GASTEIGER
****
Schrodinger Suite 2021-3.
@<TRIPOS>ATOM
      1 C          -1.9612   21.5502  -27.3300 C.ar    1  UNL1       -0.0590
      2 C          -1.2942   22.4120  -28.1957 C.ar    1  UNL1       -0.0426
      3 C          -1.9550   22.9520  -29.2938 C.ar    1  UNL1        0.0545
      4 C          -3.2998   22.6223  -29.5426 C.ar    1  UNL1        0.0735
      5 C          -3.9689   21.7588  -28.6534 C.ar    1  UNL1        0.0545
      6 C          -3.2917   21.2292  -27.5624 C.ar    1  UNL1       -0.0426
      7 CL         -5.6403   21.3533  -28.9190 Cl      1  UNL1       -0.0827
      8 C          -4.0401   23.1522  -30.7110 C.2     1  UNL1        0.2511
      9 O          -4.2265   22.4198  -31.6685 O.2     1  UNL1       -0.2698
     10 N          -4.5133   24.4119  -30.6476 N.am    1  UNL1       -0.2813
     11 C          -5.2869   25.1112  -31.5800 C.ar    1  UNL1        0.0384
     12 C          -5.9620   24.5479  -32.6807 C.ar    1  UNL1       -0.0222
     13 C          -6.7806   25.3609  -33.4589 C.ar    1  UNL1        0.0314
     14 N          -6.9234   26.6542  -33.1828 N.ar    1  UNL1       -0.2400
     15 C          -6.2984   27.2317  -32.1577 C.ar    1  UNL1        0.1266
     16 C          -5.5070   26.4571  -31.3066 C.ar    1  UNL1       -0.0003
     17 N          -6.5391   28.5828  -31.8838 N.am    1  UNL1       -0.2703
     18 C          -5.7134   29.4445  -31.2331 C.2     1  UNL1        0.2180
     19 O          -4.6156   29.1218  -30.8098 O.2     1  UNL1       -0.2754
     20 C          -6.2319   30.8471  -31.0310 C.3     1  UNL1        0.0215
     21 CL         -1.1124   24.0506  -30.3318 Cl      1  UNL1       -0.0827
     22 H          -6.7611   31.2474  -31.8901 H       1  UNL1        0.0356
     23 H          -1.4436   21.1321  -26.4786 H       1  UNL1        0.0618
     24 H          -0.2591   22.6635  -28.0157 H       1  UNL1        0.0632
     25 H          -3.8111   20.5610  -26.8909 H       1  UNL1        0.0632
     26 H          -4.3168   24.9848  -29.8393 H       1  UNL1        0.1551
     27 H          -5.8400   23.4993  -32.9094 H       1  UNL1        0.0651
     28 H          -7.3119   24.9439  -34.3018 H       1  UNL1        0.0831
     29 H          -5.0645   26.9093  -30.4313 H       1  UNL1        0.0671
     30 H          -7.4045   29.0126  -32.1802 H       1  UNL1        0.1562
     31 C          -5.0894   31.7546  -30.6833 C.3     1  UNL1       -0.0570
     32 H          -6.8876   30.8681  -30.1605 H       1  UNL1        0.0356
     33 H          -5.4617   32.7685  -30.5367 H       1  UNL1        0.0234
     34 H          -4.6143   31.4065  -29.7661 H       1  UNL1        0.0234
     35 H          -4.3607   31.7493  -31.4939 H       1  UNL1        0.0234
@<TRIPOS>BOND
     1     1     2   ar
     2     1     6   ar
     3     1    23    1
     4     2     3   ar
     5     2    24    1
     6     3     4   ar
     7     3    21    1
     8     4     5   ar
     9     4     8    1
    10     5     6   ar
    11     5     7    1
    12     6    25    1
    13     8     9    2
    14     8    10   am
    15    10    11    1
    16    10    26    1
    17    11    12   ar
    18    11    16   ar
    19    12    13   ar
    20    12    27    1
    21    13    14   ar
    22    13    28    1
    23    14    15   ar
    24    15    16   ar
    25    15    17    1
    26    16    29    1
    27    17    18   am
    28    17    30    1
    29    18    19    2
    30    18    20    1
    31    20    22    1
    32    20    31    1
    33    20    32    1
    34    31    33    1
    35    31    34    1
    36    31    35    1
