@<TRIPOS>MOLECULE
lig
 5 4 0 0 0
SMALL
GASTEIGER

@<TRIPOS>ATOM
      1 C           0.0000    0.0000    0.0000 C.3     1  UNL11      -0.0776
      2 H           1.0900    0.0000    0.0000 H       1  UNL11       0.0194
      3 H          -0.3633    1.0277    0.0000 H       1  UNL11       0.0194
      4 H          -0.3633   -0.5138   -0.8900 H       1  UNL11       0.0194
      5 H          -0.3633   -0.5138    0.8900 H       1  UNL11       0.0194
@<TRIPOS>BOND
     1     1     2    1
     2     1     3    1
     3     1     4    1
     4     1     5    1
