BMI_original
                    3D
 Structure written by MMmdl.
 49 53  0  0  1  0            999 V2000
    3.7074   -4.4467   18.4699 C   0  0  0  0  0  0
    3.7349   -5.4711   17.7892 O   0  0  0  0  0  0
    4.3967   -3.2965   22.0409 N   0  0  0  0  0  0
    3.3367   -3.2437   17.9507 N   0  0  0  0  0  0
    4.0292   -3.2712   20.6281 C   0  0  0  0  0  0
    3.6207   -2.0237   19.9958 C   0  0  0  0  0  0
    3.2968   -2.0837   18.6875 C   0  0  0  0  0  0
    5.5099   -2.4826   22.5203 C   0  0  0  0  0  0
    8.7400   -3.9813   21.2218 C   0  0  0  0  0  0
    7.5617   -3.2373   21.2794 C   0  0  0  0  0  0
    9.1076   -4.7458   22.3269 C   0  0  0  0  0  0
    6.7813   -3.2738   22.4338 C   0  0  0  0  0  0
    7.1278   -4.0141   23.5169 N   0  0  0  0  0  0
    8.2780   -4.7339   23.4474 C   0  0  0  0  0  0
    4.0633   -4.4080   19.8868 C   0  0  0  0  0  0
    5.0069  -12.3337   20.8790 C   0  0  0  0  0  0
    5.5847   -9.9547   21.5500 C   0  0  0  0  0  0
    5.1556   -9.2346   20.4316 C   0  0  0  0  0  0
    5.8348  -11.3874   21.4230 N   0  0  0  0  0  0
    6.9575  -12.0569   21.8297 C   0  0  0  0  0  0
    6.8850  -13.3440   21.5779 N   0  0  0  0  0  0
    5.7060  -13.5254   21.0009 C   0  0  0  0  0  0
    4.9313   -7.8677   20.6087 C   0  0  0  0  0  0
    4.8378   -5.8834   21.7705 N   0  0  0  0  0  0
    4.4814   -5.7011   20.5216 C   0  0  0  0  0  0
    4.5175   -6.8543   19.7754 N   0  0  0  0  0  0
    5.1245   -7.2240   21.8566 C   0  0  0  0  0  0
    5.5548   -7.9744   22.9567 C   0  0  0  0  0  0
    5.7812   -9.3421   22.7871 C   0  0  0  0  0  0
    5.7673   -7.3186   24.2890 C   0  0  0  0  0  0
    3.8680   -3.8913   22.7025 H   0  0  0  0  0  0
    3.0902   -3.2666   16.9723 H   0  0  0  0  0  0
    3.5795   -1.0941   20.5500 H   0  0  0  0  0  0
    2.9776   -1.2320   18.0982 H   0  0  0  0  0  0
    5.3304   -2.1956   23.5564 H   0  0  0  0  0  0
    5.5967   -1.5871   21.9051 H   0  0  0  0  0  0
    9.3579   -3.9650   20.3342 H   0  0  0  0  0  0
    7.2541   -2.6357   20.4350 H   0  0  0  0  0  0
   10.0145   -5.3349   22.3174 H   0  0  0  0  0  0
    8.5394   -5.3192   24.3209 H   0  0  0  0  0  0
    4.0345  -12.0854   20.4705 H   0  0  0  0  0  0
    5.0063   -9.7196   19.4766 H   0  0  0  0  0  0
    7.7764  -11.5221   22.2998 H   0  0  0  0  0  0
    5.3628  -14.5012   20.6764 H   0  0  0  0  0  0
    4.2723   -6.8923   18.7908 H   0  0  0  0  0  0
    6.1144   -9.9381   23.6273 H   0  0  0  0  0  0
    6.0998   -8.0637   25.0118 H   0  0  0  0  0  0
    6.5249   -6.5407   24.1944 H   0  0  0  0  0  0
    4.8315   -6.8749   24.6289 H   0  0  0  0  0  0
  1  2  2  0  0  0
  1  4  1  0  0  0
  1 15  1  0  0  0
  3  5  1  0  0  0
  3  8  1  0  0  0
  3 31  1  0  0  0
  4  7  1  0  0  0
  4 32  1  0  0  0
  5  6  1  0  0  0
  5 15  2  0  0  0
  6  7  2  0  0  0
  6 33  1  0  0  0
  7 34  1  0  0  0
  8 12  1  0  0  0
  8 35  1  0  0  0
  8 36  1  0  0  0
  9 11  2  0  0  0
  9 10  1  0  0  0
  9 37  1  0  0  0
 10 12  2  0  0  0
 10 38  1  0  0  0
 11 14  1  0  0  0
 11 39  1  0  0  0
 12 13  1  0  0  0
 13 14  2  0  0  0
 14 40  1  0  0  0
 15 25  1  0  0  0
 16 19  1  0  0  0
 16 22  2  0  0  0
 16 41  1  0  0  0
 17 18  1  0  0  0
 17 19  1  0  0  0
 17 29  2  0  0  0
 18 23  2  0  0  0
 18 42  1  0  0  0
 19 20  1  0  0  0
 20 21  2  0  0  0
 20 43  1  0  0  0
 21 22  1  0  0  0
 22 44  1  0  0  0
 23 26  1  0  0  0
 23 27  1  0  0  0
 24 25  2  0  0  0
 24 27  1  0  0  0
 25 26  1  0  0  0
 26 45  1  0  0  0
 27 28  2  0  0  0
 28 29  1  0  0  0
 28 30  1  0  0  0
 29 46  1  0  0  0
 30 47  1  0  0  0
 30 48  1  0  0  0
 30 49  1  0  0  0
M  END
> <s_m_entry_id>
1

> <s_m_entry_name>
BMI_original.1

> <s_pdb_PDB_TITLE>
BMI

> <i_pdb_PDB_Model>
1

> <s_pdb_PDB_format_version>
3.0

> <s_m_Source_Path>
/home/mwieder/Work/Projects/transformato/data/2OJ9-original

> <s_m_Source_File>
BMI_original.sdf

> <i_m_Source_File_Index>
1

$$$$
