@<TRIPOS>MOLECULE
neopentane.pdb
 17 16 0 0 0
SMALL
GASTEIGER

@<TRIPOS>ATOM
      1 C           2.8660    0.0000    0.0000 C.3     1  UNL1       -0.0405
      2 C           3.7320    0.5000    0.0000 C.3     1  UNL1       -0.0603
      3 H           4.0420   -0.0370    0.0000 H       1  UNL1        0.0235
      4 H           4.2690    0.8100    0.0000 H       1  UNL1        0.0235
      5 H           3.4220    1.0370    0.0000 H       1  UNL1        0.0235
      6 C           2.0000   -0.5000    0.0000 C.3     1  UNL1       -0.0603
      7 H           1.6900    0.0370    0.0000 H       1  UNL1        0.0235
      8 H           1.4630   -0.8100    0.0000 H       1  UNL1        0.0235
      9 H           2.3100   -1.0370    0.0000 H       1  UNL1        0.0235
     10 C           2.3660    0.8660    0.0000 C.3     1  UNL1       -0.0603
     11 H           2.9030    1.1760    0.0000 H       1  UNL1        0.0235
     12 H           2.0560    1.4030    0.0000 H       1  UNL1        0.0235
     13 H           1.8290    0.5560    0.0000 H       1  UNL1        0.0235
     14 C           3.3660   -0.8660    0.0000 C.3     1  UNL1       -0.0603
     15 H           2.8290   -1.1760    0.0000 H       1  UNL1        0.0235
     16 H           3.6760   -1.4030    0.0000 H       1  UNL1        0.0235
     17 H           3.9030   -0.5560    0.0000 H       1  UNL1        0.0235
@<TRIPOS>BOND
     1     1     2    1
     2     1     6    1
     3     1    10    1
     4     1    14    1
     5     2     3    1
     6     2     4    1
     7     2     5    1
     8     6     7    1
     9     6     8    1
    10     6     9    1
    11    10    11    1
    12    10    12    1
    13    10    13    1
    14    14    15    1
    15    14    16    1
    16    14    17    1
