@<TRIPOS>MOLECULE
Structure1
 15 14 0 0 0
SMALL
GASTEIGER
****
Structure written by MMmdl.
@<TRIPOS>ATOM
      1 C          -0.5527   -0.6500   -1.3104 C.3     1  UNL1       -0.0071
      2 C           0.0380   -0.3006    0.0234 C.2     1  UNL1        0.0943
      3 C           1.3472   -0.0437    0.1547 C.2     1  UNL1        0.0175
      4 C           1.9378    0.3056    1.4886 C.2     1  UNL1        0.1562
      5 C           3.4145    0.5693    1.4942 C.3     1  UNL1       -0.0019
      6 O          -0.8101   -0.2522    1.1110 O.2     1  UNL1       -0.5112
      7 O           1.2568    0.3715    2.5095 O.2     1  UNL1       -0.2929
      8 H           0.2321   -0.6489   -2.0668 H       1  UNL1        0.0307
      9 H          -1.0063   -1.6397   -1.2589 H       1  UNL1        0.0307
     10 H          -1.3130    0.0849   -1.5748 H       1  UNL1        0.0307
     11 H           2.0111   -0.0816   -0.6966 H       1  UNL1        0.0685
     12 H           3.8079    0.4542    0.4842 H       1  UNL1        0.0309
     13 H           3.6009    1.5849    1.8432 H       1  UNL1        0.0309
     14 H           3.9076   -0.1397    2.1591 H       1  UNL1        0.0309
     15 H          -1.7676   -0.4593    0.9098 H       1  UNL1        0.2916
@<TRIPOS>BOND
     1     1     2    1
     2     1     8    1
     3     1     9    1
     4     1    10    1
     5     2     3    2
     6     2     6    1
     7     3     4    1
     8     3    11    1
     9     4     5    1
    10     4     7    2
    11     5    12    1
    12     5    13    1
    13     5    14    1
    14     6    15    1
