@<TRIPOS>MOLECULE
/tmp/TRDZRR8
 35 36 0 0 0
SMALL
GASTEIGER

@<TRIPOS>ATOM
      1  C1        -1.9610   21.5500  -27.3300 C.ar    1  UNK1       -0.0590
      2  C2        -1.2940   22.4120  -28.1960 C.ar    1  UNK1       -0.0426
      3  C3        -1.9550   22.9520  -29.2940 C.ar    1  UNK1        0.0545
      4  C4        -3.3000   22.6220  -29.5430 C.ar    1  UNK1        0.0735
      5  C5        -3.9690   21.7590  -28.6530 C.ar    1  UNK1        0.0545
      6  C6        -3.2920   21.2290  -27.5620 C.ar    1  UNK1       -0.0426
      7  Cl1       -5.6400   21.3530  -28.9190 Cl      1  UNK1       -0.0827
      8  C7        -4.0400   23.1520  -30.7110 C.2     1  UNK1        0.2511
      9  O1        -4.2270   22.4200  -31.6690 O.2     1  UNK1       -0.2698
     10  N1        -4.5130   24.4120  -30.6480 N.am    1  UNK1       -0.2813
     11  C8        -5.2870   25.1110  -31.5800 C.ar    1  UNK1        0.0384
     12  C9        -5.9620   24.5480  -32.6810 C.ar    1  UNK1       -0.0222
     13  C10       -6.7810   25.3610  -33.4590 C.ar    1  UNK1        0.0314
     14  N2        -6.9230   26.6540  -33.1830 N.ar    1  UNK1       -0.2400
     15  C11       -6.2980   27.2320  -32.1580 C.ar    1  UNK1        0.1266
     16  C12       -5.5070   26.4570  -31.3070 C.ar    1  UNK1       -0.0003
     17  N3        -6.5390   28.5830  -31.8840 N.am    1  UNK1       -0.2703
     18  C13       -5.7130   29.4450  -31.2330 C.2     1  UNK1        0.2180
     19  O2        -4.6160   29.1220  -30.8100 O.2     1  UNK1       -0.2754
     20  C14       -6.2320   30.8470  -31.0310 C.3     1  UNK1        0.0215
     21  Cl2       -1.1120   24.0510  -30.3320 Cl      1  UNK1       -0.0827
     22  C15       -5.0890   31.7550  -30.6830 C.3     1  UNK1       -0.0570
     23  H1        -6.7610   31.2470  -31.8900 H       1  UNK1        0.0356
     24  H2        -1.4440   21.1320  -26.4790 H       1  UNK1        0.0618
     25  H3        -0.2590   22.6640  -28.0160 H       1  UNK1        0.0632
     26  H4        -3.8110   20.5610  -26.8910 H       1  UNK1        0.0632
     27  H5        -4.3170   24.9850  -29.8390 H       1  UNK1        0.1551
     28  H6        -5.8400   23.4990  -32.9090 H       1  UNK1        0.0651
     29  H7        -7.3120   24.9440  -34.3020 H       1  UNK1        0.0831
     30  H8        -5.0640   26.9090  -30.4310 H       1  UNK1        0.0671
     31  H9        -7.4050   29.0130  -32.1800 H       1  UNK1        0.1562
     32  H10       -6.8880   30.8680  -30.1610 H       1  UNK1        0.0356
     33  H11       -5.4620   32.7690  -30.5370 H       1  UNK1        0.0234
     34  H12       -4.6140   31.4070  -29.7660 H       1  UNK1        0.0234
     35  H13       -4.3610   31.7490  -31.4940 H       1  UNK1        0.0234
@<TRIPOS>BOND
     1     1     2   ar
     2     1     6   ar
     3     1    24    1
     4     2     3   ar
     5     2    25    1
     6     3     4   ar
     7     3    21    1
     8     4     5   ar
     9     4     8    1
    10     5     6   ar
    11     5     7    1
    12     6    26    1
    13     8     9    2
    14     8    10   am
    15    10    11    1
    16    10    27    1
    17    11    12   ar
    18    11    16   ar
    19    12    13   ar
    20    12    28    1
    21    13    14   ar
    22    13    29    1
    23    14    15   ar
    24    15    16   ar
    25    15    17    1
    26    16    30    1
    27    17    18   am
    28    17    31    1
    29    18    19    2
    30    18    20    1
    31    20    23    1
    32    20    22    1
    33    20    32    1
    34    22    33    1
    35    22    34    1
    36    22    35    1

