1a07_ligand
  -I-interpret- 

 75 75  0  0  0  0  0  0  0  0999 V2000
   44.2370   -8.2120   37.7350 C   0  0  0  0  0
   44.7330   -7.0880   37.6820 O   0  0  0  0  0
   44.5630   -9.2310   36.6600 C   0  0  0  0  0
   43.2450   -8.6020   38.5290 N   0  0  0  0  0
   42.7180   -7.8550   39.6520 C   0  0  0  0  0
   43.0310   -8.5870   40.9380 C   0  0  0  0  0
   42.9840   -9.8300   41.0350 O   0  0  0  0  0
   41.2230   -7.7330   39.5770 C   0  0  0  0  0
   40.7870   -7.0350   38.3170 C   0  0  0  0  0
   40.1550   -7.7460   37.3250 C   0  0  0  0  0
   40.9540   -5.6820   38.1710 C   0  0  0  0  0
   39.6750   -7.0980   36.2050 C   0  0  0  0  0
   40.4900   -5.0230   37.0660 C   0  0  0  0  0
   39.8380   -5.7310   36.0960 C   0  0  0  0  0
   43.2610   -7.7270   41.8960 N   0  0  0  0  0
   43.5320   -8.1320   43.2420 C   0  0  0  0  0
   42.2220   -8.5590   43.8920 C   0  0  0  0  0
   41.1700   -8.1200   43.4080 O   0  0  0  0  0
   44.1300   -6.9690   43.9910 C   0  0  0  0  0
   45.3750   -6.4380   43.3250 C   0  0  0  0  0
   46.5620   -7.3880   43.2880 C   0  0  0  0  0
   46.9350   -7.9210   44.3350 O   0  0  0  0  0
   47.1520   -7.5390   42.2180 O   0  0  0  0  0
   42.1750   -9.3920   44.9650 N   0  0  0  0  0
   43.3590  -10.0850   45.4580 C   0  0  0  0  0
   43.3090  -11.3700   44.6620 C   0  0  0  0  0
   44.6400  -12.0510   44.6530 C   0  0  0  0  0
   44.4660  -12.8770   43.4050 C   0  0  0  0  0
   45.6740  -13.7880   43.1090 C   0  0  0  0  0
   40.9270   -9.5980   45.6950 C   0  0  0  0  0
   41.0950   -8.9380   47.0430 C   0  0  0  0  0
   41.0080   -7.4330   47.0000 C   0  0  0  0  0
   41.1620   -6.9710   48.4190 C   0  0  0  0  0
   41.1630   -5.4480   48.4790 C   0  0  0  0  0
   44.2486   -8.8468   35.6896 H   0  0  0  0  0
   45.6374   -9.4144   36.6488 H   0  0  0  0  0
   44.0365  -10.1616   36.8717 H   0  0  0  0  0
   42.8176   -9.5065   38.3299 H   0  0  0  0  0
   43.1752   -6.8659   39.6253 H   0  0  0  0  0
   40.8819   -7.1476   40.4308 H   0  0  0  0  0
   40.7949   -8.7354   39.5813 H   0  0  0  0  0
   40.0325   -8.8246   37.4231 H   0  0  0  0  0
   41.4670   -5.1201   38.9515 H   0  0  0  0  0
   39.1733   -7.6584   35.4161 H   0  0  0  0  0
   40.6382   -3.9483   36.9606 H   0  0  0  0  0
   39.4413   -5.2099   35.2247 H   0  0  0  0  0
   43.2468   -6.7311   41.6760 H   0  0  0  0  0
   44.2342   -8.9655   43.2599 H   0  0  0  0  0
   44.4011   -7.3131   44.9891 H   0  0  0  0  0
   43.3918   -6.1674   44.0159 H   0  0  0  0  0
   45.6910   -5.5729   43.9080 H   0  0  0  0  0
   45.1078   -6.2385   42.2873 H   0  0  0  0  0
   46.3400   -7.6756   45.0473 H   0  0  0  0  0
   43.3567  -10.2395   46.5370 H   0  0  0  0  0
   44.2826   -9.5225   45.3213 H   0  0  0  0  0
   43.0320  -11.1330   43.6348 H   0  0  0  0  0
   42.5796  -12.0367   45.1221 H   0  0  0  0  0
   44.8751  -12.6182   45.5536 H   0  0  0  0  0
   45.5011  -11.3827   44.6487 H   0  0  0  0  0
   44.3559  -12.1900   42.5659 H   0  0  0  0  0
   43.5961  -13.5175   43.5505 H   0  0  0  0  0
   46.5661  -13.1754   42.9784 H   0  0  0  0  0
   45.8222  -14.4749   43.9422 H   0  0  0  0  0
   45.4848  -14.3555   42.1978 H   0  0  0  0  0
   40.7155  -10.6613   45.8081 H   0  0  0  0  0
   40.0858   -9.1648   45.1539 H   0  0  0  0  0
   42.0889   -9.1955   47.4090 H   0  0  0  0  0
   40.2852   -9.2919   47.6810 H   0  0  0  0  0
   40.0586   -7.1037   46.5777 H   0  0  0  0  0
   41.7826   -7.0102   46.3602 H   0  0  0  0  0
   42.1061   -7.3445   48.8155 H   0  0  0  0  0
   40.3291   -7.3510   49.0105 H   0  0  0  0  0
   41.9922   -5.0628   47.8856 H   0  0  0  0  0
   40.2221   -5.0693   48.0798 H   0  0  0  0  0
   41.2754   -5.1265   49.5144 H   0  0  0  0  0
  1  2  2  0  0  0
  1  3  1  0  0  0
  5  4  1  0  0  0
  5  8  1  0  0  0
  6  5  1  0  0  0
  6  7  2  0  0  0
  8  9  1  0  0  0
  9 11  4  0  0  0
  9 10  4  0  0  0
 10 12  4  0  0  0
 12 14  4  0  0  0
 13 14  4  0  0  0
 11 13  4  0  0  0
 17 16  1  0  0  0
 16 19  1  0  0  0
 16 15  1  0  0  0
 19 20  1  0  0  0
 20 21  1  0  0  0
 21 22  1  0  0  0
 21 23  2  0  0  0
 17 18  2  0  0  0
 24 30  1  0  0  0
 24 25  1  0  0  0
 25 26  1  0  0  0
 26 27  1  0  0  0
 27 28  1  0  0  0
 28 29  1  0  0  0
 30 31  1  0  0  0
 31 32  1  0  0  0
 32 33  1  0  0  0
 33 34  1  0  0  0
  4  1  1  0  0  0
 15  6  1  0  0  0
 17 24  1  0  0  0
  3 35  1  0  0  0
  3 36  1  0  0  0
  3 37  1  0  0  0
  4 38  1  0  0  0
  5 39  1  0  0  0
  8 40  1  0  0  0
  8 41  1  0  0  0
 10 42  1  0  0  0
 11 43  1  0  0  0
 12 44  1  0  0  0
 13 45  1  0  0  0
 14 46  1  0  0  0
 15 47  1  0  0  0
 16 48  1  0  0  0
 19 49  1  0  0  0
 19 50  1  0  0  0
 20 51  1  0  0  0
 20 52  1  0  0  0
 22 53  1  0  0  0
 25 54  1  0  0  0
 25 55  1  0  0  0
 26 56  1  0  0  0
 26 57  1  0  0  0
 27 58  1  0  0  0
 27 59  1  0  0  0
 28 60  1  0  0  0
 28 61  1  0  0  0
 29 62  1  0  0  0
 29 63  1  0  0  0
 29 64  1  0  0  0
 30 65  1  0  0  0
 30 66  1  0  0  0
 31 67  1  0  0  0
 31 68  1  0  0  0
 32 69  1  0  0  0
 32 70  1  0  0  0
 33 71  1  0  0  0
 33 72  1  0  0  0
 34 73  1  0  0  0
 34 74  1  0  0  0
 34 75  1  0  0  0
M  END
$$$$
