1a1b_ligand
  -I-interpret- 

 81 81  0  0  0  0  0  0  0  0999 V2000
   44.2360   -8.1990   37.6730 C   0  0  0  0  0
   44.8900   -7.1680   37.7910 O   0  0  0  0  0
   44.5580   -9.1950   36.5670 C   0  0  0  0  0
   43.1070   -8.4040   38.3330 N   0  0  0  0  0
   42.6420   -7.5610   39.4030 C   0  0  0  0  0
   42.9860   -8.1930   40.7250 C   0  0  0  0  0
   43.0380   -9.4310   40.8380 O   0  0  0  0  0
   41.1280   -7.3860   39.2670 C   0  0  0  0  0
   40.8020   -6.5290   38.0580 C   0  0  0  0  0
   40.2830   -7.1190   36.9330 C   0  0  0  0  0
   41.0250   -5.1690   38.0710 C   0  0  0  0  0
   39.9770   -6.3570   35.8250 C   0  0  0  0  0
   40.7290   -4.3890   36.9680 C   0  0  0  0  0
   40.1880   -4.9880   35.8390 C   0  0  0  0  0
   39.7000   -4.1850   34.7380 O   0  0  0  0  0
   40.5630   -3.9720   33.4060 P   0  0  0  0  0
   40.4000   -5.2520   32.7070 O   0  0  0  0  0
   39.8760   -2.8040   32.8150 O   0  0  0  0  0
   41.9290   -3.6980   33.9550 O   0  0  0  0  0
   43.2010   -7.3590   41.7220 N   0  0  0  0  0
   43.4870   -7.8450   43.0630 C   0  0  0  0  0
   42.2290   -8.3700   43.7890 C   0  0  0  0  0
   41.1100   -7.9850   43.4110 O   0  0  0  0  0
   44.0590   -6.7400   43.8740 C   0  0  0  0  0
   45.3490   -6.1890   43.3630 C   0  0  0  0  0
   46.4500   -7.2250   43.2850 C   0  0  0  0  0
   46.6540   -7.9680   44.2480 O   0  0  0  0  0
   47.1120   -7.2700   42.2500 O   0  0  0  0  0
   42.2650   -9.2250   44.8290 N   0  0  0  0  0
   43.4990   -9.9060   45.2390 C   0  0  0  0  0
   43.5630  -11.0690   44.2680 C   0  0  0  0  0
   44.6800  -11.9950   44.6600 C   0  0  0  0  0
   45.1020  -12.7650   43.4250 C   0  0  0  0  0
   43.9700  -13.6010   42.8190 C   0  0  0  0  0
   41.0240   -9.4280   45.5940 C   0  0  0  0  0
   41.1890   -8.7770   46.9820 C   0  0  0  0  0
   41.0170   -7.2490   47.0370 C   0  0  0  0  0
   41.5180   -6.8540   48.3990 C   0  0  0  0  0
   41.5470   -5.3450   48.4910 C   0  0  0  0  0
   44.4509   -8.7073   35.5981 H   0  0  0  0  0
   45.5820   -9.5493   36.6856 H   0  0  0  0  0
   43.8708  -10.0389   36.6284 H   0  0  0  0  0
   42.5338   -9.2051   38.0682 H   0  0  0  0  0
   43.1221   -6.5837   39.3525 H   0  0  0  0  0
   40.7449   -6.8972   40.1628 H   0  0  0  0  0
   40.6668   -8.3658   39.1428 H   0  0  0  0  0
   40.1117   -8.1953   36.9150 H   0  0  0  0  0
   41.4407   -4.7014   38.9636 H   0  0  0  0  0
   39.5674   -6.8339   34.9346 H   0  0  0  0  0
   40.9185   -3.3157   36.9852 H   0  0  0  0  0
   40.0506   -2.0267   33.3506 H   0  0  0  0  0
   41.9320   -2.8424   34.3904 H   0  0  0  0  0
   43.1663   -6.3541   41.5505 H   0  0  0  0  0
   44.1887   -8.6724   42.9573 H   0  0  0  0  0
   44.2598   -7.1468   44.8651 H   0  0  0  0  0
   43.3361   -5.9245   43.8512 H   0  0  0  0  0
   45.6742   -5.4126   44.0555 H   0  0  0  0  0
   45.1729   -5.8172   42.3536 H   0  0  0  0  0
   46.0270   -7.7648   44.9460 H   0  0  0  0  0
   43.4901  -10.2186   46.2832 H   0  0  0  0  0
   44.3782   -9.2631   45.1972 H   0  0  0  0  0
   43.7437  -10.6903   43.2620 H   0  0  0  0  0
   42.6182  -11.6120   44.2918 H   0  0  0  0  0
   44.3454  -12.6821   45.4372 H   0  0  0  0  0
   45.5211  -11.4256   45.0555 H   0  0  0  0  0
   45.8977  -13.4497   43.7185 H   0  0  0  0  0
   45.4152  -12.0394   42.6743 H   0  0  0  0  0
   43.6201  -14.3245   43.5553 H   0  0  0  0  0
   43.1479  -12.9446   42.5336 H   0  0  0  0  0
   44.3395  -14.1265   41.9384 H   0  0  0  0  0
   40.8272  -10.4943   45.7054 H   0  0  0  0  0
   40.1852   -8.9722   45.0679 H   0  0  0  0  0
   42.2130   -8.9806   47.2951 H   0  0  0  0  0
   40.4035   -9.1957   47.6111 H   0  0  0  0  0
   39.9794   -6.9520   46.8848 H   0  0  0  0  0
   41.5697   -6.7498   46.2411 H   0  0  0  0  0
   42.5210   -7.2520   48.5526 H   0  0  0  0  0
   40.8571   -7.2575   49.1662 H   0  0  0  0  0
   42.2117   -4.9482   47.7237 H   0  0  0  0  0
   40.5410   -4.9537   48.3398 H   0  0  0  0  0
   41.9091   -5.0492   49.4756 H   0  0  0  0  0
  1  2  2  0  0  0
  1  3  1  0  0  0
  5  4  1  0  0  0
  5  8  1  0  0  0
  6  5  1  0  0  0
  6  7  2  0  0  0
  8  9  1  0  0  0
  9 11  4  0  0  0
  9 10  4  0  0  0
 10 12  4  0  0  0
 12 14  4  0  0  0
 14 15  1  0  0  0
 13 14  4  0  0  0
 11 13  4  0  0  0
 15 16  1  0  0  0
 16 19  1  0  0  0
 16 18  1  0  0  0
 16 17  2  0  0  0
 22 21  1  0  0  0
 21 24  1  0  0  0
 21 20  1  0  0  0
 24 25  1  0  0  0
 25 26  1  0  0  0
 26 27  1  0  0  0
 26 28  2  0  0  0
 22 23  2  0  0  0
 29 35  1  0  0  0
 29 30  1  0  0  0
 30 31  1  0  0  0
 31 32  1  0  0  0
 32 33  1  0  0  0
 33 34  1  0  0  0
 35 36  1  0  0  0
 36 37  1  0  0  0
 37 38  1  0  0  0
 38 39  1  0  0  0
  4  1  1  0  0  0
 20  6  1  0  0  0
 22 29  1  0  0  0
  3 40  1  0  0  0
  3 41  1  0  0  0
  3 42  1  0  0  0
  4 43  1  0  0  0
  5 44  1  0  0  0
  8 45  1  0  0  0
  8 46  1  0  0  0
 10 47  1  0  0  0
 11 48  1  0  0  0
 12 49  1  0  0  0
 13 50  1  0  0  0
 18 51  1  0  0  0
 19 52  1  0  0  0
 20 53  1  0  0  0
 21 54  1  0  0  0
 24 55  1  0  0  0
 24 56  1  0  0  0
 25 57  1  0  0  0
 25 58  1  0  0  0
 27 59  1  0  0  0
 30 60  1  0  0  0
 30 61  1  0  0  0
 31 62  1  0  0  0
 31 63  1  0  0  0
 32 64  1  0  0  0
 32 65  1  0  0  0
 33 66  1  0  0  0
 33 67  1  0  0  0
 34 68  1  0  0  0
 34 69  1  0  0  0
 34 70  1  0  0  0
 35 71  1  0  0  0
 35 72  1  0  0  0
 36 73  1  0  0  0
 36 74  1  0  0  0
 37 75  1  0  0  0
 37 76  1  0  0  0
 38 77  1  0  0  0
 38 78  1  0  0  0
 39 79  1  0  0  0
 39 80  1  0  0  0
 39 81  1  0  0  0
M  END
$$$$
