1a1c_ligand
  -I-interpret- 

 76 77  0  0  0  0  0  0  0  0999 V2000
   43.5190   -8.2430   37.7910 C   0  0  0  0  0
   44.3230   -7.2900   37.9570 O   0  0  0  0  0
   43.6590   -9.2430   36.6520 C   0  0  0  0  0
   42.3330   -8.3420   38.3950 N   0  0  0  0  0
   41.9790   -7.5290   39.5450 C   0  0  0  0  0
   42.3860   -8.1830   40.8420 C   0  0  0  0  0
   42.5910   -9.3890   40.8830 O   0  0  0  0  0
   40.5100   -7.3070   39.5340 C   0  0  0  0  0
   40.1230   -6.4930   38.3120 C   0  0  0  0  0
   39.5580   -7.0870   37.2010 C   0  0  0  0  0
   40.2580   -5.1200   38.3320 C   0  0  0  0  0
   39.1510   -6.3180   36.1340 C   0  0  0  0  0
   39.8570   -4.3410   37.2630 C   0  0  0  0  0
   39.2830   -4.9390   36.1700 C   0  0  0  0  0
   38.8370   -4.1920   35.2070 O   0  0  0  0  0
   39.7940   -3.8520   33.8240 P   0  0  0  0  0
   39.8700   -5.1270   33.1020 O   0  0  0  0  0
   38.9180   -2.7610   33.3280 O   0  0  0  0  0
   41.0570   -3.5150   34.5650 O   0  0  0  0  0
   42.4950   -7.4340   41.9040 N   0  0  0  0  0
   42.8420   -7.9730   43.2160 C   0  0  0  0  0
   41.6530   -8.6770   43.8690 C   0  0  0  0  0
   40.5120   -8.3620   43.4900 O   0  0  0  0  0
   43.2860   -6.8350   44.1050 C   0  0  0  0  0
   44.4590   -6.1680   43.4930 C   0  0  0  0  0
   45.6790   -7.0390   43.5640 C   0  0  0  0  0
   45.9380   -7.6060   44.6290 O   0  0  0  0  0
   46.3740   -7.1170   42.5580 O   0  0  0  0  0
   41.7790   -9.6160   44.8130 N   0  0  0  0  0
   43.0500  -10.1980   45.2100 C   0  0  0  0  0
   40.6660   -9.9810   45.6900 C   0  0  0  0  0
   40.7430   -9.1770   47.0160 C   0  0  0  0  0
   40.4450   -7.6970   46.9960 C   0  0  0  0  0
   40.6520   -7.1010   48.3470 C   0  0  0  0  0
   40.4800   -5.6460   48.4670 C   0  0  0  0  0
   41.9700   -7.4310   48.9710 C   0  0  0  0  0
   42.1810   -6.2700   49.9250 C   0  0  0  0  0
   40.9440   -5.4670   49.8720 C   0  0  0  0  0
   43.6050   -8.7164   35.6992 H   0  0  0  0  0
   44.6193   -9.7522   36.7333 H   0  0  0  0  0
   42.8526   -9.9740   36.7108 H   0  0  0  0  0
   41.6520   -9.0115   38.0366 H   0  0  0  0  0
   42.5127   -6.5810   39.4771 H   0  0  0  0  0
   40.2202   -6.7657   40.4346 H   0  0  0  0  0
   39.9999   -8.2697   39.5025 H   0  0  0  0  0
   39.4337   -8.1694   37.1685 H   0  0  0  0  0
   40.6902   -4.6394   39.2097 H   0  0  0  0  0
   38.7217   -6.7975   35.2543 H   0  0  0  0  0
   39.9958   -3.2602   37.2883 H   0  0  0  0  0
   38.9880   -2.0043   33.9146 H   0  0  0  0  0
   40.9477   -2.6744   35.0156 H   0  0  0  0  0
   42.3313   -6.4312   41.8146 H   0  0  0  0  0
   43.6397   -8.7044   43.0864 H   0  0  0  0  0
   43.5566   -7.2222   45.0873 H   0  0  0  0  0
   42.4728   -6.1174   44.2143 H   0  0  0  0  0
   44.6583   -5.2460   44.0391 H   0  0  0  0  0
   44.2365   -5.9667   42.4451 H   0  0  0  0  0
   45.2562   -7.4015   45.2732 H   0  0  0  0  0
   43.3040   -9.8616   46.2152 H   0  0  0  0  0
   42.9698  -11.2850   45.1986 H   0  0  0  0  0
   43.8262   -9.8824   44.5129 H   0  0  0  0  0
   40.7229  -11.0461   45.9145 H   0  0  0  0  0
   39.7260   -9.7522   45.1879 H   0  0  0  0  0
   41.7854   -9.2484   47.3265 H   0  0  0  0  0
   39.9698   -9.6096   47.6509 H   0  0  0  0  0
   39.4060   -7.5501   46.7009 H   0  0  0  0  0
   41.1175   -7.2111   46.2891 H   0  0  0  0  0
   39.8331   -7.5844   48.8798 H   0  0  0  0  0
   39.4704   -5.2861   48.2686 H   0  0  0  0  0
   41.0227   -5.0579   47.7269 H   0  0  0  0  0
   42.7734   -7.5363   48.2420 H   0  0  0  0  0
   41.9759   -8.4002   49.4697 H   0  0  0  0  0
   42.3786   -6.6228   50.9372 H   0  0  0  0  0
   43.0487   -5.6763   49.6372 H   0  0  0  0  0
   40.2027   -5.7890   50.6033 H   0  0  0  0  0
   41.1110   -4.4210   50.1291 H   0  0  0  0  0
  1  2  2  0  0  0
  1  3  1  0  0  0
  5  4  1  0  0  0
  5  8  1  0  0  0
  6  5  1  0  0  0
  6  7  2  0  0  0
  8  9  1  0  0  0
  9 11  4  0  0  0
  9 10  4  0  0  0
 10 12  4  0  0  0
 12 14  4  0  0  0
 14 15  1  0  0  0
 13 14  4  0  0  0
 11 13  4  0  0  0
 15 16  1  0  0  0
 16 19  1  0  0  0
 16 18  1  0  0  0
 16 17  2  0  0  0
 22 21  1  0  0  0
 21 24  1  0  0  0
 21 20  1  0  0  0
 24 25  1  0  0  0
 25 26  1  0  0  0
 26 27  1  0  0  0
 26 28  2  0  0  0
 22 23  2  0  0  0
 29 31  1  0  0  0
 29 30  1  0  0  0
 31 32  1  0  0  0
 32 33  1  0  0  0
 33 34  1  0  0  0
 34 36  1  0  0  0
 34 35  1  0  0  0
 35 38  1  0  0  0
 38 37  1  0  0  0
 36 37  1  0  0  0
  4  1  1  0  0  0
 20  6  1  0  0  0
 22 29  1  0  0  0
  3 39  1  0  0  0
  3 40  1  0  0  0
  3 41  1  0  0  0
  4 42  1  0  0  0
  5 43  1  0  0  0
  8 44  1  0  0  0
  8 45  1  0  0  0
 10 46  1  0  0  0
 11 47  1  0  0  0
 12 48  1  0  0  0
 13 49  1  0  0  0
 18 50  1  0  0  0
 19 51  1  0  0  0
 20 52  1  0  0  0
 21 53  1  0  0  0
 24 54  1  0  0  0
 24 55  1  0  0  0
 25 56  1  0  0  0
 25 57  1  0  0  0
 27 58  1  0  0  0
 30 59  1  0  0  0
 30 60  1  0  0  0
 30 61  1  0  0  0
 31 62  1  0  0  0
 31 63  1  0  0  0
 32 64  1  0  0  0
 32 65  1  0  0  0
 33 66  1  0  0  0
 33 67  1  0  0  0
 34 68  1  0  0  0
 35 69  1  0  0  0
 35 70  1  0  0  0
 36 71  1  0  0  0
 36 72  1  0  0  0
 37 73  1  0  0  0
 37 74  1  0  0  0
 38 75  1  0  0  0
 38 76  1  0  0  0
M  END
$$$$
