1a3e_ligand
  -I-interpret- 

161163  0  0  0  0  0  0  0  0999 V2000
    8.6580  -13.2030   -2.1690 N   0  3  0  0  0
    7.2360  -12.9370   -2.4750 C   0  0  0  0  0
    6.6170  -11.9940   -1.4310 C   0  0  0  0  0
    6.2510  -10.8530   -1.7460 O   0  0  0  0  0
    6.5380  -12.5370   -0.2380 N   0  0  0  0  0
    5.9720  -11.9030    0.9720 C   0  0  0  0  0
    5.9350  -10.3600    0.9250 C   0  0  0  0  0
    4.8730   -9.7370    1.0600 O   0  0  0  0  0
    6.8080  -12.2980    2.1880 C   0  0  0  0  0
    8.2680  -12.5810    1.8350 C   0  0  0  0  0
    8.8370  -11.9310    0.8780 O   0  0  0  0  0
    8.9320  -13.4660    2.4960 O   0  0  0  0  0
    7.0900   -9.7460    0.7580 N   0  0  0  0  0
    7.1930   -8.2730    0.7680 C   0  0  0  0  0
    7.0480   -7.6830   -0.6330 C   0  0  0  0  0
    7.6620   -8.1490   -1.5990 O   0  0  0  0  0
    8.5480   -7.8470    1.3300 C   0  0  0  0  0
    8.5550   -7.8490    2.8520 C   0  0  0  0  0
    8.7790   -9.0410    3.5450 C   0  0  0  0  0
    8.3250   -6.6610    3.5520 C   0  0  0  0  0
    8.7630   -9.0490    4.9430 C   0  0  0  0  0
    8.3130   -6.6670    4.9500 C   0  0  0  0  0
    8.5290   -7.8620    5.6460 C   0  0  0  0  0
    6.2230   -6.6510   -0.7240 N   0  0  0  0  0
    6.0450   -5.9400   -1.9910 C   0  0  0  0  0
    7.3790   -5.2710   -2.3190 C   0  0  0  0  0
    8.1120   -4.8340   -1.4210 O   0  0  0  0  0
    4.9360   -4.9030   -1.8800 C   0  0  0  0  0
    4.7440   -4.0980   -3.1640 C   0  0  0  0  0
    3.5660   -3.1300   -3.0840 C   0  0  0  0  0
    2.8700   -3.0550   -2.0000 O   0  0  0  0  0
    3.2690   -2.3910   -4.0970 O   0  0  0  0  0
    7.6630   -5.2100   -3.5950 N   0  0  0  0  0
    8.9370   -4.6810   -4.0970 C   0  0  0  0  0
    9.0660   -3.1680   -3.9090 C   0  0  0  0  0
    8.1030   -2.4120   -4.0960 O   0  0  0  0  0
    9.0670   -4.9740   -5.5860 C   0  0  0  0  0
    9.6010   -6.3780   -5.8610 C   0  0  0  0  0
   10.8610   -6.6970   -5.0580 C   0  0  0  0  0
   11.6710   -5.7480   -4.7310 O   0  0  0  0  0
   11.1160   -7.9120   -4.7110 O   0  0  0  0  0
   10.2830   -2.7980   -3.5500 N   0  0  0  0  0
   10.6880   -1.4010   -3.3740 C   0  0  0  0  0
   11.0880   -0.8180   -4.7290 C   0  0  0  0  0
   11.8150   -1.4940   -5.4470 O   0  0  0  0  0
   11.9580   -1.3050   -2.5200 C   0  0  0  0  0
   11.8700   -2.0530   -1.1930 C   0  0  0  0  0
   12.3320    0.1380   -2.1700 C   0  0  0  0  0
   10.5690   -1.7860   -0.4430 C   0  0  0  0  0
   10.8130    0.4550   -4.9540 N   0  0  0  0  0
   11.2610    1.1430   -6.1500 C   0  0  0  0  0
   12.7360    0.8790   -6.4100 C   0  0  0  0  0
   13.5560    0.8130   -5.4880 O   0  0  0  0  0
   11.0150    2.6110   -5.8670 C   0  0  0  0  0
   10.2080    2.7020   -4.6270 C   0  0  0  0  0
    9.9640    1.3220   -4.0970 C   0  0  0  0  0
   13.0890    0.7540   -7.6840 N   0  0  0  0  0
   14.4130    0.4450   -8.1630 C   0  0  0  0  0
   15.5510    1.3630   -7.6980 C   0  0  0  0  0
   16.6920    0.8930   -7.5160 O   0  0  0  0  0
   15.3150    2.5800   -7.3730 N   0  0  0  0  0
   16.4050    3.4410   -6.8610 C   0  0  0  0  0
   17.2350    2.7720   -5.7180 C   0  0  0  0  0
   18.4730    2.7130   -5.7650 O   0  0  0  0  0
   15.8270    4.7200   -6.2750 C   0  0  0  0  0
   14.9390    5.4740   -7.2570 C   0  0  0  0  0
   13.4570    5.1430   -7.0970 C   0  0  0  0  0
   12.9590    4.9790   -5.9200 O   0  0  0  0  0
   12.7090    5.0310   -8.1400 O   0  0  0  0  0
   16.5460    2.2810   -4.6860 N   0  0  0  0  0
   17.2080    1.7240   -3.4720 C   0  0  0  0  0
   17.5700    0.2530   -3.6050 C   0  0  0  0  0
   18.5830   -0.1680   -3.0290 O   0  0  0  0  0
   16.3020    1.9140   -2.2560 C   0  0  0  0  0
   15.4770    3.2020   -2.3350 C   0  0  0  0  0
   16.0400    4.4320   -1.9600 C   0  0  0  0  0
   14.1570    3.1510   -2.7880 C   0  0  0  0  0
   15.2750    5.6050   -2.0410 C   0  0  0  0  0
   13.3950    4.3210   -2.8700 C   0  0  0  0  0
   13.9530    5.5480   -2.4960 C   0  0  0  0  0
   13.2090    6.6830   -2.5760 O   0  0  0  0  0
   16.7870   -0.5350   -4.3390 N   0  0  0  0  0
   17.0970   -1.9530   -4.4960 C   0  0  0  0  0
   16.6550   -2.4910   -5.8530 C   0  0  0  0  0
   15.6370   -1.9820   -6.3790 O   0  0  0  0  0
   16.4490   -2.7840   -3.3880 C   0  0  0  0  0
   17.3350   -3.4120   -6.3650 O   0  0  0  0  0
    9.0449  -13.8297   -2.8746 H   0  0  0  0  0
    9.1755  -12.3240   -2.1727 H   0  0  0  0  0
    8.7310  -13.6381   -1.2493 H   0  0  0  0  0
    6.6919  -13.8814   -2.4605 H   0  0  0  0  0
    7.1709  -12.4653   -3.4555 H   0  0  0  0  0
    6.9010  -13.4848   -0.1365 H   0  0  0  0  0
    4.9429  -12.2572    1.0319 H   0  0  0  0  0
    6.3818  -13.2108    2.6043 H   0  0  0  0  0
    6.7895  -11.4653    2.8911 H   0  0  0  0  0
    8.2088  -11.3157    0.4928 H   0  0  0  0  0
    7.9334  -10.3025    0.6184 H   0  0  0  0  0
    6.3816   -7.8997    1.3929 H   0  0  0  0  0
    8.7573   -6.8335    0.9879 H   0  0  0  0  0
    9.3006   -8.5551    0.9831 H   0  0  0  0  0
    8.9661   -9.9641    2.9963 H   0  0  0  0  0
    8.1553   -5.7314    3.0087 H   0  0  0  0  0
    8.9327   -9.9794    5.4850 H   0  0  0  0  0
    8.1355   -5.7415    5.4977 H   0  0  0  0  0
    8.5149   -7.8680    6.7359 H   0  0  0  0  0
    5.7045   -6.3474    0.1002 H   0  0  0  0  0
    5.7543   -6.6317   -2.7816 H   0  0  0  0  0
    5.2100   -4.2060   -1.0880 H   0  0  0  0  0
    4.0049   -5.4319   -1.6763 H   0  0  0  0  0
    4.5442   -4.8013   -3.9725 H   0  0  0  0  0
    5.6478   -3.5114   -3.3288 H   0  0  0  0  0
    3.2235   -3.6678   -1.3511 H   0  0  0  0  0
    6.9719   -5.5431   -4.2672 H   0  0  0  0  0
    9.7217   -5.1711   -3.5207 H   0  0  0  0  0
    9.7707   -4.2575   -6.0097 H   0  0  0  0  0
    8.0752   -4.8981   -6.0316 H   0  0  0  0  0
    9.8543   -6.4385   -6.9194 H   0  0  0  0  0
    8.8299   -7.0921   -5.5717 H   0  0  0  0  0
   11.3351   -4.9129   -5.0647 H   0  0  0  0  0
   10.9790   -3.5255   -3.3864 H   0  0  0  0  0
    9.8515   -0.8771   -2.9115 H   0  0  0  0  0
   12.7137   -1.7638   -3.1576 H   0  0  0  0  0
   12.6919   -1.7109   -0.5640 H   0  0  0  0  0
   11.9150   -3.1202   -1.4100 H   0  0  0  0  0
   12.5047    0.7001   -3.0878 H   0  0  0  0  0
   11.5180    0.5971   -1.6090 H   0  0  0  0  0
   13.2386    0.1404   -1.5649 H   0  0  0  0  0
   10.4866   -0.7204   -0.2290 H   0  0  0  0  0
    9.7256   -2.1008   -1.0576 H   0  0  0  0  0
   10.5683   -2.3467    0.4917 H   0  0  0  0  0
   10.7325    0.8028   -7.0405 H   0  0  0  0  0
   11.3680    3.4495   -6.4674 H   0  0  0  0  0
    9.8492    3.6257   -4.1730 H   0  0  0  0  0
   10.2162    1.2338   -3.0403 H   0  0  0  0  0
    8.9113    1.0424   -4.1394 H   0  0  0  0  0
   12.3599    0.8883   -8.3846 H   0  0  0  0  0
   14.3699    0.5487   -9.2472 H   0  0  0  0  0
   14.6487   -0.5445   -7.7714 H   0  0  0  0  0
   14.3720    2.9570   -7.4675 H   0  0  0  0  0
   17.0544    3.6282   -7.7162 H   0  0  0  0  0
   16.6601    5.3716   -6.0117 H   0  0  0  0  0
   15.2149    4.4455   -5.4159 H   0  0  0  0  0
   15.2371    5.1838   -8.2645 H   0  0  0  0  0
   15.0636    6.5399   -7.0663 H   0  0  0  0  0
   13.6487    5.0968   -5.2627 H   0  0  0  0  0
   15.5269    2.2871   -4.7295 H   0  0  0  0  0
   18.1417    2.2726   -3.3479 H   0  0  0  0  0
   16.9352    1.9739   -1.3708 H   0  0  0  0  0
   15.6097    1.0730   -2.2177 H   0  0  0  0  0
   17.0701    4.4756   -1.6064 H   0  0  0  0  0
   13.7190    2.1961   -3.0787 H   0  0  0  0  0
   15.7103    6.5608   -1.7495 H   0  0  0  0  0
   12.3656    4.2767   -3.2256 H   0  0  0  0  0
   12.3330    6.4676   -2.9043 H   0  0  0  0  0
   15.9629   -0.1444   -4.7959 H   0  0  0  0  0
   18.1814   -2.0409   -4.4286 H   0  0  0  0  0
   16.8220   -2.4500   -2.4198 H   0  0  0  0  0
   15.3671   -2.6567   -3.4256 H   0  0  0  0  0
   16.6976   -3.8355   -3.5316 H   0  0  0  0  0
   18.0624   -3.6346   -5.7795 H   0  0  0  0  0
  1  2  1  0  0  0
  2  3  1  0  0  0
  3  4  2  0  0  0
  3  5  1  0  0  0
  5  6  1  0  0  0
  6  7  1  0  0  0
  6  9  1  0  0  0
  7  8  2  0  0  0
  7 13  1  0  0  0
  9 10  1  0  0  0
 10 11  1  0  0  0
 10 12  2  0  0  0
 13 14  1  0  0  0
 14 15  1  0  0  0
 14 17  1  0  0  0
 15 16  2  0  0  0
 15 24  1  0  0  0
 17 18  1  0  0  0
 18 19  4  0  0  0
 18 20  4  0  0  0
 19 21  4  0  0  0
 20 22  4  0  0  0
 21 23  4  0  0  0
 22 23  4  0  0  0
 24 25  1  0  0  0
 25 26  1  0  0  0
 25 28  1  0  0  0
 26 27  2  0  0  0
 26 33  1  0  0  0
 28 29  1  0  0  0
 29 30  1  0  0  0
 30 31  1  0  0  0
 30 32  2  0  0  0
 33 34  1  0  0  0
 34 35  1  0  0  0
 34 37  1  0  0  0
 35 36  2  0  0  0
 35 42  1  0  0  0
 37 38  1  0  0  0
 38 39  1  0  0  0
 39 40  1  0  0  0
 39 41  2  0  0  0
 42 43  1  0  0  0
 43 44  1  0  0  0
 43 46  1  0  0  0
 44 45  2  0  0  0
 44 50  1  0  0  0
 46 47  1  0  0  0
 46 48  1  0  0  0
 47 49  1  0  0  0
 50 51  1  0  0  0
 50 56  1  0  0  0
 51 52  1  0  0  0
 51 54  1  0  0  0
 52 53  2  0  0  0
 52 57  1  0  0  0
 54 55  2  0  0  0
 55 56  1  0  0  0
 57 58  1  0  0  0
 58 59  1  0  0  0
 59 60  2  0  0  0
 59 61  1  0  0  0
 61 62  1  0  0  0
 62 63  1  0  0  0
 62 65  1  0  0  0
 63 64  2  0  0  0
 63 70  1  0  0  0
 65 66  1  0  0  0
 66 67  1  0  0  0
 67 68  1  0  0  0
 67 69  2  0  0  0
 70 71  1  0  0  0
 71 72  1  0  0  0
 71 74  1  0  0  0
 72 73  2  0  0  0
 72 82  1  0  0  0
 74 75  1  0  0  0
 75 76  4  0  0  0
 75 77  4  0  0  0
 76 78  4  0  0  0
 77 79  4  0  0  0
 78 80  4  0  0  0
 79 80  4  0  0  0
 80 81  1  0  0  0
 82 83  1  0  0  0
 83 84  1  0  0  0
 83 86  1  0  0  0
 84 85  2  0  0  0
 84 87  1  0  0  0
  1 88  1  0  0  0
  1 89  1  0  0  0
  1 90  1  0  0  0
  2 91  1  0  0  0
  2 92  1  0  0  0
  5 93  1  0  0  0
  6 94  1  0  0  0
  9 95  1  0  0  0
  9 96  1  0  0  0
 11 97  1  0  0  0
 13 98  1  0  0  0
 14 99  1  0  0  0
 17100  1  0  0  0
 17101  1  0  0  0
 19102  1  0  0  0
 20103  1  0  0  0
 21104  1  0  0  0
 22105  1  0  0  0
 23106  1  0  0  0
 24107  1  0  0  0
 25108  1  0  0  0
 28109  1  0  0  0
 28110  1  0  0  0
 29111  1  0  0  0
 29112  1  0  0  0
 31113  1  0  0  0
 33114  1  0  0  0
 34115  1  0  0  0
 37116  1  0  0  0
 37117  1  0  0  0
 38118  1  0  0  0
 38119  1  0  0  0
 40120  1  0  0  0
 42121  1  0  0  0
 43122  1  0  0  0
 46123  1  0  0  0
 47124  1  0  0  0
 47125  1  0  0  0
 48126  1  0  0  0
 48127  1  0  0  0
 48128  1  0  0  0
 49129  1  0  0  0
 49130  1  0  0  0
 49131  1  0  0  0
 51132  1  0  0  0
 54133  1  0  0  0
 55134  1  0  0  0
 56135  1  0  0  0
 56136  1  0  0  0
 57137  1  0  0  0
 58138  1  0  0  0
 58139  1  0  0  0
 61140  1  0  0  0
 62141  1  0  0  0
 65142  1  0  0  0
 65143  1  0  0  0
 66144  1  0  0  0
 66145  1  0  0  0
 68146  1  0  0  0
 70147  1  0  0  0
 71148  1  0  0  0
 74149  1  0  0  0
 74150  1  0  0  0
 76151  1  0  0  0
 77152  1  0  0  0
 78153  1  0  0  0
 79154  1  0  0  0
 81155  1  0  0  0
 82156  1  0  0  0
 83157  1  0  0  0
 86158  1  0  0  0
 86159  1  0  0  0
 86160  1  0  0  0
 87161  1  0  0  0
M  END
$$$$
