1a4g_ligand
  -I-interpret- 

 43 43  0  0  0  0  0  0  0  0999 V2000
   -2.2500   58.2420   -5.5910 C   0  0  0  0  0
   -3.1720   59.1980   -5.4520 O   0  0  0  0  0
   -1.3720   58.0410   -4.8130 O   0  0  0  0  0
   -2.3300   57.4010   -6.7980 C   0  0  0  0  0
   -1.4680   56.3850   -6.9670 C   0  0  0  0  0
   -1.5020   55.5410   -8.2050 C   0  0  0  0  0
   -2.2900   56.1690   -9.2970 C   0  0  0  0  0
   -2.6540   55.1780  -10.2990 N   0  0  0  0  0
   -2.1140   55.1230  -11.5200 C   0  0  0  0  0
   -1.3800   55.9770  -11.9750 O   0  0  0  0  0
   -2.4680   53.8830  -12.3160 C   0  0  0  0  0
   -3.5940   56.7640   -8.6860 C   0  0  0  0  0
   -3.2710   57.7090   -7.6700 O   0  0  0  0  0
   -4.6460   57.3120   -9.6380 C   0  0  0  0  0
   -3.8180   57.8920  -10.0820 O   0  0  0  0  0
   -5.8270   57.8570   -9.0220 C   0  0  0  0  0
   -6.4010   56.6980   -8.4110 O   0  0  0  0  0
   -6.8360   58.4830   -9.9830 C   0  0  0  0  0
   -7.4390   57.4730  -10.7910 O   0  0  0  0  0
   -0.1890   55.1810   -8.6950 N   0  0  0  0  0
    0.0430   54.0300   -9.3200 C   0  0  0  0  0
   -0.8960   53.0810   -9.4020 N   0  0  0  0  0
    1.2160   53.8670   -9.9260 N   0  0  0  0  0
   -3.7749   59.1705   -6.1986 H   0  0  0  0  0
   -0.7323   56.1710   -6.1917 H   0  0  0  0  0
   -2.0005   54.6221   -7.8964 H   0  0  0  0  0
   -1.6901   56.9467   -9.7697 H   0  0  0  0  0
   -3.3621   54.4856  -10.0551 H   0  0  0  0  0
   -2.9664   54.1760  -13.2401 H   0  0  0  0  0
   -1.5576   53.3319  -12.5517 H   0  0  0  0  0
   -3.1338   53.2524  -11.7268 H   0  0  0  0  0
   -4.0995   55.8918   -8.2716 H   0  0  0  0  0
   -5.2896   56.7485  -10.3136 H   0  0  0  0  0
   -4.1541   58.4238  -10.8071 H   0  0  0  0  0
   -5.5719   58.6811   -8.3557 H   0  0  0  0  0
   -7.2120   56.9439   -7.9599 H   0  0  0  0  0
   -6.3206   59.1951  -10.6275 H   0  0  0  0  0
   -7.6108   58.9890   -9.4071 H   0  0  0  0  0
   -8.0703   57.8785  -11.3899 H   0  0  0  0  0
    0.5844   55.8315   -8.5565 H   0  0  0  0  0
   -0.7142   52.2280   -9.9308 H   0  0  0  0  0
   -1.7939   53.2103   -8.9357 H   0  0  0  0  0
    1.9099   54.6143   -9.9035 H   0  0  0  0  0
  4  1  1  0  0  0
  1  3  2  0  0  0
  1  2  1  0  0  0
  4 13  1  0  0  0
  4  5  2  0  0  0
  5  6  1  0  0  0
  6 20  1  0  0  0
  6  7  1  0  0  0
  7 12  1  0  0  0
  7  8  1  0  0  0
  8  9  1  0  0  0
  9 11  1  0  0  0
  9 10  2  0  0  0
 12 14  1  0  0  0
 12 13  1  0  0  0
 14 16  1  0  0  0
 14 15  1  0  0  0
 16 18  1  0  0  0
 16 17  1  0  0  0
 18 19  1  0  0  0
 20 21  1  0  0  0
 21 23  2  0  0  0
 21 22  1  0  0  0
  2 24  1  0  0  0
  5 25  1  0  0  0
  6 26  1  0  0  0
  7 27  1  0  0  0
  8 28  1  0  0  0
 11 29  1  0  0  0
 11 30  1  0  0  0
 11 31  1  0  0  0
 12 32  1  0  0  0
 14 33  1  0  0  0
 15 34  1  0  0  0
 16 35  1  0  0  0
 17 36  1  0  0  0
 18 37  1  0  0  0
 18 38  1  0  0  0
 19 39  1  0  0  0
 20 40  1  0  0  0
 22 41  1  0  0  0
 22 42  1  0  0  0
 23 43  1  0  0  0
M  END
$$$$
