1a4m_ligand
  -I-interpret- 

 31 33  0  0  0  0  0  0  0  0999 V2000
   42.5180   21.8840   54.0210 N   0  0  0  0  0
   43.5210   21.4580   53.2580 C   0  0  0  0  0
   43.3100   20.9690   52.0350 N   0  0  0  0  0
   42.0220   20.8840   51.5120 C   0  0  0  0  0
   40.9670   21.3010   52.2440 C   0  0  0  0  0
   41.2000   21.8320   53.5610 C   0  0  0  0  0
   40.5460   23.2950   53.6830 O   0  0  0  0  0
   39.8430   21.1100   51.5070 N   0  0  0  0  0
   40.1960   20.5780   50.3350 C   0  0  0  0  0
   41.5390   20.4300   50.3160 N   0  0  0  0  0
   42.3350   19.8660   49.2340 C   0  0  0  0  0
   41.6760   18.5710   48.6820 C   0  0  0  0  0
   42.6470   17.5160   48.5850 O   0  0  0  0  0
   41.0570   18.8410   47.2770 C   0  0  0  0  0
   41.2670   17.7040   46.4350 O   0  0  0  0  0
   42.1750   19.9560   47.0240 C   0  0  0  0  0
   42.3620   20.7420   48.1390 O   0  0  0  0  0
   41.8650   20.8400   45.7960 C   0  0  0  0  0
   40.6550   21.5940   45.9760 O   0  0  0  0  0
   42.7134   22.2525   54.9518 H   0  0  0  0  0
   44.5400   21.5098   53.6415 H   0  0  0  0  0
   39.5148   20.3080   49.5280 H   0  0  0  0  0
   43.3275   19.6797   49.6443 H   0  0  0  0  0
   40.8879   18.2656   49.3703 H   0  0  0  0  0
   42.2248   16.7245   48.2431 H   0  0  0  0  0
   39.9997   19.0714   47.1457 H   0  0  0  0  0
   40.8851   17.8725   45.5705 H   0  0  0  0  0
   43.0989   19.4168   46.8149 H   0  0  0  0  0
   41.7399   20.1916   44.9288 H   0  0  0  0  0
   42.6891   21.5403   45.6601 H   0  0  0  0  0
   40.4943   22.1300   45.1960 H   0  0  0  0  0
  1  2  1  0  0  0
  1  6  1  0  0  0
  2  3  2  0  0  0
  3  4  1  0  0  0
  4  5  4  0  0  0
  4 10  4  0  0  0
  5  6  1  0  0  0
  5  8  4  0  0  0
  6  7  2  0  0  0
  8  9  4  0  0  0
  9 10  4  0  0  0
 10 11  1  0  0  0
 11 12  1  0  0  0
 11 17  1  0  0  0
 12 13  1  0  0  0
 12 14  1  0  0  0
 14 15  1  0  0  0
 14 16  1  0  0  0
 16 17  1  0  0  0
 16 18  1  0  0  0
 18 19  1  0  0  0
  1 20  1  0  0  0
  2 21  1  0  0  0
  9 22  1  0  0  0
 11 23  1  0  0  0
 12 24  1  0  0  0
 13 25  1  0  0  0
 14 26  1  0  0  0
 15 27  1  0  0  0
 16 28  1  0  0  0
 18 29  1  0  0  0
 18 30  1  0  0  0
 19 31  1  0  0  0
M  END
$$$$
