1a4w_ligand
  -I-interpret- 

 81 84  0  0  0  0  0  0  0  0999 V2000
   17.7350  -17.1780   22.6120 C   0  0  0  0  0
   18.5430  -17.3500   21.4620 C   0  0  0  0  0
   19.8770  -17.0460   21.5580 C   0  0  0  0  0
   20.4010  -16.5660   22.7660 C   0  0  0  0  0
   19.6130  -16.3580   23.8930 C   0  0  0  0  0
   20.0840  -15.7910   25.0460 C   0  0  0  0  0
   19.2410  -15.5680   26.1140 C   0  0  0  0  0
   17.8930  -15.9710   26.0280 C   0  0  0  0  0
   17.3700  -16.5100   24.8790 C   0  0  0  0  0
   18.2050  -16.6890   23.8090 C   0  0  0  0  0
   21.3830  -15.2850   25.1040 N   0  0  0  0  0
   21.8980  -14.2170   24.2140 C   0  0  0  0  0
   22.6350  -16.2130   25.4960 C   0  0  0  0  0
   15.9090  -17.5810   22.4170 S   0  0  0  0  0
   15.9880  -18.0130   21.0100 O   0  0  0  0  0
   14.9980  -18.1910   23.4020 O   0  0  0  0  0
   14.8930  -15.9700   22.4850 N   0  0  0  0  0
   15.1930  -15.1140   21.2960 C   0  0  0  0  0
   16.3070  -14.1670   21.7520 C   0  0  0  0  0
   16.2120  -13.7810   22.9140 O   0  0  0  0  0
   13.9420  -14.3540   20.8790 C   0  0  0  0  0
   13.2320  -13.6860   22.0580 C   0  0  0  0  0
   11.8920  -13.1330   21.5950 C   0  0  0  0  0
   11.2180  -12.6470   22.7800 N   0  0  0  0  0
   11.4570  -11.5540   23.4830 C   0  0  0  0  0
   12.3590  -10.6740   23.0450 N   0  0  0  0  0
   10.7230  -11.3360   24.5660 N   0  0  0  0  0
   17.2800  -13.6920   20.8300 N   0  0  0  0  0
   17.0430  -14.0330   19.3270 C   0  0  0  0  0
   18.4210  -14.4720   18.8090 C   0  0  0  0  0
   19.6100  -13.4170   19.1940 C   0  0  0  0  0
   19.6960  -13.0830   20.7650 C   0  0  0  0  0
   18.3510  -12.6800   21.3100 C   0  0  0  0  0
   16.5930  -13.0140   18.5500 C   0  0  0  0  0
   15.9410  -13.4250   17.1790 C   0  0  0  0  0
   15.7830  -14.9040   14.4580 S   0  0  0  0  0
   17.4880  -11.9220   16.2870 O   0  0  0  0  0
   17.0590  -15.5830   13.5080 C   0  0  0  0  0
   16.8640  -13.5560   14.7390 C   0  0  0  0  0
   16.8250  -12.9030   16.1070 C   0  0  0  0  0
   18.1460  -14.7340   13.4510 C   0  0  0  0  0
   18.0490  -13.5540   14.1060 N   0  0  0  0  0
   18.1169  -17.7137   20.5270 H   0  0  0  0  0
   20.5295  -17.1777   20.6949 H   0  0  0  0  0
   21.4672  -16.3473   22.8245 H   0  0  0  0  0
   19.6137  -15.0843   27.0169 H   0  0  0  0  0
   17.2478  -15.8513   26.8983 H   0  0  0  0  0
   16.3177  -16.7881   24.8201 H   0  0  0  0  0
   22.6561  -13.6393   24.7428 H   0  0  0  0  0
   22.3378  -14.6678   23.3244 H   0  0  0  0  0
   21.0774  -13.5614   23.9227 H   0  0  0  0  0
   23.0668  -16.6397   24.5907 H   0  0  0  0  0
   23.3851  -15.6112   26.0091 H   0  0  0  0  0
   22.2993  -17.0153   26.1531 H   0  0  0  0  0
   14.2374  -15.7261   23.2273 H   0  0  0  0  0
   15.5063  -15.6927   20.4270 H   0  0  0  0  0
   13.2498  -15.0694   20.4350 H   0  0  0  0  0
   14.2441  -13.5702   20.1843 H   0  0  0  0  0
   13.8486  -12.8725   22.4402 H   0  0  0  0  0
   13.0693  -14.4197   22.8475 H   0  0  0  0  0
   11.3021  -13.9032   21.0981 H   0  0  0  0  0
   12.0297  -12.3328   20.8679 H   0  0  0  0  0
   10.4522  -13.2290   23.1196 H   0  0  0  0  0
   12.5027   -9.7981   23.5475 H   0  0  0  0  0
   12.9049  -10.8771   22.2077 H   0  0  0  0  0
    9.9992  -12.0028   24.8343 H   0  0  0  0  0
   16.2547  -14.7834   19.2670 H   0  0  0  0  0
   18.3656  -14.5296   17.7219 H   0  0  0  0  0
   18.6617  -15.4290   19.2719 H   0  0  0  0  0
   19.3975  -12.4830   18.6738 H   0  0  0  0  0
   20.5567  -13.8742   18.9061 H   0  0  0  0  0
   20.3914  -12.2558   20.9075 H   0  0  0  0  0
   20.0323  -13.9755   21.2927 H   0  0  0  0  0
   18.3855  -12.6743   22.3994 H   0  0  0  0  0
   18.0965  -11.6822   20.9526 H   0  0  0  0  0
   17.4659  -12.4095   18.3038 H   0  0  0  0  0
   15.8108  -12.5159   19.1228 H   0  0  0  0  0
   14.9372  -13.0099   17.0885 H   0  0  0  0  0
   15.8438  -14.5082   17.1065 H   0  0  0  0  0
   17.0110  -16.5554   13.0178 H   0  0  0  0  0
   19.0470  -15.0036   12.9000 H   0  0  0  0  0
 14  1  1  0  0  0
  1 10  4  0  0  0
  1  2  4  0  0  0
  2  3  4  0  0  0
  3  4  4  0  0  0
  5  4  4  0  0  0
 10  5  4  0  0  0
  5  6  4  0  0  0
  6 11  1  0  0  0
  6  7  4  0  0  0
  8  7  4  0  0  0
  9  8  4  0  0  0
 10  9  4  0  0  0
 11 13  1  0  0  0
 11 12  1  0  0  0
 14 16  2  0  0  0
 14 15  2  0  0  0
 19 18  1  0  0  0
 18 21  1  0  0  0
 18 17  1  0  0  0
 21 22  1  0  0  0
 22 23  1  0  0  0
 23 24  1  0  0  0
 24 25  1  0  0  0
 25 26  1  0  0  0
 25 27  2  0  0  0
 19 20  2  0  0  0
 28 33  1  0  0  0
 29 28  1  0  0  0
 34 29  1  0  0  0
 29 30  1  0  0  0
 30 31  1  0  0  0
 31 32  1  0  0  0
 33 32  1  0  0  0
 35 34  1  0  0  0
 39 36  4  0  0  0
 36 38  4  0  0  0
 41 38  4  0  0  0
 42 41  4  0  0  0
 39 42  4  0  0  0
 40 39  1  0  0  0
 40 37  2  0  0  0
 17 14  1  0  0  0
 28 19  1  0  0  0
 40 35  1  0  0  0
  2 43  1  0  0  0
  3 44  1  0  0  0
  4 45  1  0  0  0
  7 46  1  0  0  0
  8 47  1  0  0  0
  9 48  1  0  0  0
 12 49  1  0  0  0
 12 50  1  0  0  0
 12 51  1  0  0  0
 13 52  1  0  0  0
 13 53  1  0  0  0
 13 54  1  0  0  0
 17 55  1  0  0  0
 18 56  1  0  0  0
 21 57  1  0  0  0
 21 58  1  0  0  0
 22 59  1  0  0  0
 22 60  1  0  0  0
 23 61  1  0  0  0
 23 62  1  0  0  0
 24 63  1  0  0  0
 26 64  1  0  0  0
 26 65  1  0  0  0
 27 66  1  0  0  0
 29 67  1  0  0  0
 30 68  1  0  0  0
 30 69  1  0  0  0
 31 70  1  0  0  0
 31 71  1  0  0  0
 32 72  1  0  0  0
 32 73  1  0  0  0
 33 74  1  0  0  0
 33 75  1  0  0  0
 34 76  1  0  0  0
 34 77  1  0  0  0
 35 78  1  0  0  0
 35 79  1  0  0  0
 38 80  1  0  0  0
 41 81  1  0  0  0
M  END
$$$$
