1a5g_ligand
  -I-interpret- 

 86 89  0  0  0  0  0  0  0  0999 V2000
   17.9370  -13.0140   20.9460 C   0  0  0  0  0
   19.1340  -12.9300   19.9920 C   0  0  0  0  0
   20.0460  -14.1410   20.3410 C   0  0  0  0  0
   19.6110  -16.2000   21.7990 C   0  0  0  0  0
   18.4750  -17.0050   22.4910 C   0  0  0  0  0
   17.5080  -16.1580   23.2780 C   0  0  0  0  0
   17.3450  -14.7490   22.6440 C   0  0  0  0  0
   19.1030  -15.1160   20.9130 N   0  3  0  0  0
   18.1770  -14.3160   21.6160 N   0  0  0  0  0
   16.3830  -14.0860   22.9910 O   0  0  0  0  0
   16.5330  -12.8940   20.3820 C   0  0  0  0  0
   16.0150  -13.9840   20.0560 O   0  0  0  0  0
   16.1250  -16.7390   23.2510 N   0  3  0  0  0
   17.7600  -16.1380   24.8070 C   0  0  0  0  0
   19.1990  -15.7640   25.1780 C   0  0  0  0  0
   20.2050  -16.7560   25.2760 C   0  0  0  0  0
   21.5340  -16.4000   25.5810 C   0  0  0  0  0
   21.9080  -15.0910   25.8400 C   0  0  0  0  0
   20.9110  -14.1170   25.8250 C   0  0  0  0  0
   19.5940  -14.4370   25.4480 C   0  0  0  0  0
   15.8030  -11.7310   20.2580 N   0  0  0  0  0
   14.3880  -11.6800   19.7870 C   0  0  0  0  0
   14.3520  -10.9100   18.4500 C   0  0  0  0  0
   13.2810  -10.5340   17.8590 O   0  0  0  0  0
   13.4550  -10.9210   20.7580 C   0  0  0  0  0
   12.9150  -11.8770   21.7720 C   0  0  0  0  0
   12.1100  -11.3370   22.8370 C   0  0  0  0  0
   11.3720  -12.3250   23.5590 N   0  0  0  0  0
   10.5880  -12.1520   24.5860 C   0  0  0  0  0
   10.4390  -10.8990   25.0790 N   0  0  0  0  0
    9.8600  -13.1360   25.1200 N   0  0  0  0  0
   14.2810  -12.2460   13.6500 C   0  0  0  0  0
   13.7470  -11.3090   12.7470 C   0  0  0  0  0
   12.4400  -11.5240   12.2560 C   0  0  0  0  0
   11.6740  -12.6230   12.7000 C   0  0  0  0  0
   12.2160  -13.5230   13.6610 C   0  0  0  0  0
   13.5280  -13.3270   14.1320 C   0  0  0  0  0
   15.7270  -12.0380   14.2340 C   0  0  0  0  0
   15.7100  -12.9260   15.5360 C   0  0  0  0  0
   14.7320  -12.3470   16.4930 N   0  0  0  0  0
   15.3770  -11.4490   17.4510 C   0  0  0  0  0
   16.5140  -11.1040   17.4890 O   0  0  0  0  0
   17.9162  -12.1335   21.5882 H   0  0  0  0  0
   19.6676  -11.9869   20.1101 H   0  0  0  0  0
   18.8125  -12.9649   18.9511 H   0  0  0  0  0
   20.8495  -13.8786   21.0291 H   0  0  0  0  0
   20.5797  -14.5300   19.4739 H   0  0  0  0  0
   20.1793  -16.8944   21.1802 H   0  0  0  0  0
   20.2109  -15.7346   22.5811 H   0  0  0  0  0
   18.9488  -17.6897   23.1944 H   0  0  0  0  0
   17.9041  -17.4971   21.7036 H   0  0  0  0  0
   18.7436  -15.6695   20.1353 H   0  0  0  0  0
   16.1431  -17.6756   23.6545 H   0  0  0  0  0
   15.4976  -16.1457   23.7939 H   0  0  0  0  0
   15.7974  -16.7893   22.2863 H   0  0  0  0  0
   17.5723  -17.1428   25.1854 H   0  0  0  0  0
   17.1014  -15.3852   25.2401 H   0  0  0  0  0
   19.9493  -17.8032   25.1142 H   0  0  0  0  0
   22.2937  -17.1809   25.6143 H   0  0  0  0  0
   22.9461  -14.8320   26.0483 H   0  0  0  0  0
   21.1551  -13.0934   26.1093 H   0  0  0  0  0
   18.8583  -13.6373   25.3621 H   0  0  0  0  0
   16.2580  -10.8517   20.5032 H   0  0  0  0  0
   14.0416  -12.7101   19.7035 H   0  0  0  0  0
   14.6012   -9.9409   18.8822 H   0  0  0  0  0
   13.5091  -10.0750   17.0473 H   0  0  0  0  0
   12.6308  -10.4767   20.1999 H   0  0  0  0  0
   14.0151  -10.1329   21.2613 H   0  0  0  0  0
   13.7885  -12.3120   22.2577 H   0  0  0  0  0
   12.2570  -12.5479   21.2197 H   0  0  0  0  0
   11.3877  -10.6566   22.3860 H   0  0  0  0  0
   12.7859  -10.8551   23.5434 H   0  0  0  0  0
   11.4710  -13.2853   23.2297 H   0  0  0  0  0
    9.7827  -10.7252   25.8403 H   0  0  0  0  0
   10.9831  -10.1294   24.6889 H   0  0  0  0  0
    9.9026  -14.0748   24.7235 H   0  0  0  0  0
   14.3262  -10.4402   12.4344 H   0  0  0  0  0
   12.0183  -10.8332   11.5259 H   0  0  0  0  0
   10.6695  -12.7825   12.3080 H   0  0  0  0  0
   11.6194  -14.3576   14.0293 H   0  0  0  0  0
   13.9557  -14.0102   14.8658 H   0  0  0  0  0
   15.9556  -10.9918   14.4374 H   0  0  0  0  0
   16.5120  -12.3259   13.5348 H   0  0  0  0  0
   16.7028  -12.9438   15.9857 H   0  0  0  0  0
   15.4230  -13.9471   15.2847 H   0  0  0  0  0
   13.7326  -12.5508   16.4832 H   0  0  0  0  0
  1  2  1  0  0  0
  1  9  1  0  0  0
 11  1  1  0  0  0
  2  3  1  0  0  0
  8  3  1  0  0  0
  4  5  1  0  0  0
  8  4  1  0  0  0
  6  5  1  0  0  0
  7  6  1  0  0  0
  6 13  1  0  0  0
  6 14  1  0  0  0
  9  7  1  0  0  0
  7 10  2  0  0  0
  9  8  1  0  0  0
 11 12  2  0  0  0
 21 11  1  0  0  0
 14 15  1  0  0  0
 15 16  4  0  0  0
 15 20  4  0  0  0
 16 17  4  0  0  0
 17 18  4  0  0  0
 19 18  4  0  0  0
 20 19  4  0  0  0
 22 21  1  0  0  0
 23 22  1  0  0  0
 22 25  1  0  0  0
 23 24  1  0  0  0
 41 23  1  0  0  0
 25 26  1  0  0  0
 26 27  1  0  0  0
 27 28  1  0  0  0
 28 29  1  0  0  0
 29 30  1  0  0  0
 29 31  2  0  0  0
 32 33  4  0  0  0
 32 37  4  0  0  0
 38 32  1  0  0  0
 33 34  4  0  0  0
 34 35  4  0  0  0
 36 35  4  0  0  0
 37 36  4  0  0  0
 39 38  1  0  0  0
 40 39  1  0  0  0
 40 41  1  0  0  0
 41 42  2  0  0  0
  1 43  1  0  0  0
  2 44  1  0  0  0
  2 45  1  0  0  0
  3 46  1  0  0  0
  3 47  1  0  0  0
  4 48  1  0  0  0
  4 49  1  0  0  0
  5 50  1  0  0  0
  5 51  1  0  0  0
  8 52  1  0  0  0
 13 53  1  0  0  0
 13 54  1  0  0  0
 13 55  1  0  0  0
 14 56  1  0  0  0
 14 57  1  0  0  0
 16 58  1  0  0  0
 17 59  1  0  0  0
 18 60  1  0  0  0
 19 61  1  0  0  0
 20 62  1  0  0  0
 21 63  1  0  0  0
 22 64  1  0  0  0
 23 65  1  0  0  0
 24 66  1  0  0  0
 25 67  1  0  0  0
 25 68  1  0  0  0
 26 69  1  0  0  0
 26 70  1  0  0  0
 27 71  1  0  0  0
 27 72  1  0  0  0
 28 73  1  0  0  0
 30 74  1  0  0  0
 30 75  1  0  0  0
 31 76  1  0  0  0
 33 77  1  0  0  0
 34 78  1  0  0  0
 35 79  1  0  0  0
 36 80  1  0  0  0
 37 81  1  0  0  0
 38 82  1  0  0  0
 38 83  1  0  0  0
 39 84  1  0  0  0
 39 85  1  0  0  0
 40 86  1  0  0  0
M  END
$$$$
