1a7c_ligand
  -I-interpret- 

 71 70  0  0  0  0  0  0  0  0999 V2000
   14.2550   16.6390   35.4590 N   0  0  0  0  0
   14.4260   15.7480   36.4300 C   0  0  0  0  0
   15.0440   14.6940   36.2740 O   0  0  0  0  0
   13.8150   16.1030   37.7720 C   0  0  0  0  0
   14.7900   16.4270   34.1170 C   0  0  0  0  0
   13.7780   15.6640   33.2120 C   0  0  0  0  0
   13.5330   14.3620   33.7530 O   0  0  0  0  0
   14.3070   15.5180   31.7870 C   0  0  0  0  0
   15.1480   17.7410   33.4290 C   0  0  0  0  0
   14.3930   18.7120   33.4740 O   0  0  0  0  0
   16.3290   17.7710   32.8300 N   0  0  0  0  0
   16.7890   18.9330   32.0810 C   0  0  0  0  0
   17.2030   18.3710   30.7160 C   0  0  0  0  0
   17.9530   17.3900   30.6420 O   0  0  0  0  0
   18.0020   19.6300   32.7540 C   0  0  0  0  0
   18.4020   20.8580   31.9540 C   0  0  0  0  0
   17.6630   20.0300   34.1820 C   0  0  0  0  0
   16.6760   18.9530   29.6430 N   0  0  0  0  0
   16.9950   18.4800   28.2990 C   0  0  0  0  0
   17.0540   19.6180   27.2990 C   0  0  0  0  0
   16.3630   20.6210   27.4440 O   0  0  0  0  0
   15.9760   17.4380   27.8500 C   0  0  0  0  0
   17.8950   19.4520   26.2860 N   0  0  0  0  0
   18.0680   20.4520   25.2390 C   0  0  0  0  0
   18.4160   19.7720   23.9420 C   0  0  0  0  0
   19.0550   18.7210   23.9320 O   0  0  0  0  0
   19.1930   21.4320   25.5810 C   0  0  0  0  0
   18.7800   22.3780   26.5470 O   0  0  0  0  0
   18.0130   20.4050   22.8500 N   0  0  0  0  0
   18.2730   19.9110   21.5100 C   0  0  0  0  0
   17.0030   19.3060   20.9230 C   0  0  0  0  0
   17.2350   18.8930   19.5940 O   0  0  0  0  0
   19.8440   21.0390   19.9190 N   0  0  0  0  0
   18.7370   21.0760   20.6440 C   0  0  0  0  0
   18.2710   22.2100   20.9000 O   0  0  0  0  0
   13.7358   17.4944   35.6566 H   0  0  0  0  0
   13.0903   15.3390   38.0533 H   0  0  0  0  0
   14.6011   16.1549   38.5253 H   0  0  0  0  0
   13.3161   17.0693   37.6984 H   0  0  0  0  0
   15.6929   15.8304   34.2475 H   0  0  0  0  0
   12.8539   16.2414   33.1829 H   0  0  0  0  0
   13.2000   14.4467   34.6494 H   0  0  0  0  0
   15.2340   14.9448   31.8019 H   0  0  0  0  0
   13.5672   14.9990   31.1775 H   0  0  0  0  0
   14.4961   16.5063   31.3680 H   0  0  0  0  0
   16.9362   16.9540   32.8952 H   0  0  0  0  0
   16.0086   19.6916   32.0203 H   0  0  0  0  0
   18.8364   18.9291   32.7781 H   0  0  0  0  0
   18.6748   20.5579   30.9423 H   0  0  0  0  0
   17.5635   21.5533   31.9145 H   0  0  0  0  0
   19.2537   21.3407   32.4333 H   0  0  0  0  0
   16.8181   20.7186   34.1742 H   0  0  0  0  0
   17.4028   19.1401   34.7552 H   0  0  0  0  0
   18.5260   20.5168   34.6362 H   0  0  0  0  0
   16.0396   19.7414   29.7605 H   0  0  0  0  0
   17.9840   18.0235   28.3381 H   0  0  0  0  0
   15.9940   16.5936   28.5391 H   0  0  0  0  0
   14.9811   17.8833   27.8448 H   0  0  0  0  0
   16.2272   17.0950   26.8463 H   0  0  0  0  0
   18.4413   18.5920   26.2379 H   0  0  0  0  0
   17.1310   21.0018   25.1508 H   0  0  0  0  0
   19.4739   21.9657   24.6731 H   0  0  0  0  0
   20.0316   20.8668   25.9877 H   0  0  0  0  0
   19.5062   22.9758   26.7387 H   0  0  0  0  0
   17.4970   21.2785   22.9556 H   0  0  0  0  0
   19.0434   19.1406   21.5429 H   0  0  0  0  0
   16.2112   20.0550   20.9328 H   0  0  0  0  0
   16.7074   18.4434   21.5202 H   0  0  0  0  0
   16.4304   18.5137   19.2329 H   0  0  0  0  0
   20.2733   21.9071   19.5990 H   0  0  0  0  0
   20.2676   20.1423   19.6804 H   0  0  0  0  0
  1  2  1  0  0  0
  1  5  1  0  0  0
  2  3  2  0  0  0
  2  4  1  0  0  0
  5  6  1  0  0  0
  5  9  1  0  0  0
  6  7  1  0  0  0
  6  8  1  0  0  0
  9 10  2  0  0  0
  9 11  1  0  0  0
 11 12  1  0  0  0
 12 13  1  0  0  0
 12 15  1  0  0  0
 13 14  2  0  0  0
 13 18  1  0  0  0
 15 16  1  0  0  0
 15 17  1  0  0  0
 18 19  1  0  0  0
 19 20  1  0  0  0
 19 22  1  0  0  0
 20 21  2  0  0  0
 20 23  1  0  0  0
 23 24  1  0  0  0
 24 25  1  0  0  0
 24 27  1  0  0  0
 25 26  2  0  0  0
 25 29  1  0  0  0
 27 28  1  0  0  0
 29 30  1  0  0  0
 30 31  1  0  0  0
 30 34  1  0  0  0
 31 32  1  0  0  0
 34 33  1  0  0  0
 34 35  2  0  0  0
  1 36  1  0  0  0
  4 37  1  0  0  0
  4 38  1  0  0  0
  4 39  1  0  0  0
  5 40  1  0  0  0
  6 41  1  0  0  0
  7 42  1  0  0  0
  8 43  1  0  0  0
  8 44  1  0  0  0
  8 45  1  0  0  0
 11 46  1  0  0  0
 12 47  1  0  0  0
 15 48  1  0  0  0
 16 49  1  0  0  0
 16 50  1  0  0  0
 16 51  1  0  0  0
 17 52  1  0  0  0
 17 53  1  0  0  0
 17 54  1  0  0  0
 18 55  1  0  0  0
 19 56  1  0  0  0
 22 57  1  0  0  0
 22 58  1  0  0  0
 22 59  1  0  0  0
 23 60  1  0  0  0
 24 61  1  0  0  0
 27 62  1  0  0  0
 27 63  1  0  0  0
 28 64  1  0  0  0
 29 65  1  0  0  0
 30 66  1  0  0  0
 31 67  1  0  0  0
 31 68  1  0  0  0
 32 69  1  0  0  0
 33 70  1  0  0  0
 33 71  1  0  0  0
M  END
$$$$
