1a7t_ligand
  -I-interpret- 

 26 26  0  0  0  0  0  0  0  0999 V2000
   34.6940   41.1480   37.8690 O   0  0  0  0  0
   35.8530   41.8280   37.4730 C   0  0  0  0  0
   35.4420   43.0960   36.6730 C   0  0  0  0  0
   34.5530   42.7110   35.5840 N   0  3  0  0  0
   33.4300   41.8790   35.9390 C   0  0  0  0  0
   33.9060   40.6910   36.7700 C   0  0  0  0  0
   34.2210   43.7160   34.6110 C   0  0  0  0  0
   35.4540   44.3360   34.0050 C   0  0  0  0  0
   35.5370   44.3750   32.2200 S   0  0  0  0  0
   35.9610   43.0850   31.7370 O   0  0  0  0  0
   34.3420   44.7290   31.5700 O   0  0  0  0  0
   36.4920   45.3840   31.8870 O   0  0  0  0  0
   36.4660   41.1793   36.8473 H   0  0  0  0  0
   36.4300   42.1167   38.3515 H   0  0  0  0  0
   36.3323   43.5749   36.2654 H   0  0  0  0  0
   34.9284   43.7941   37.3340 H   0  0  0  0  0
   35.1905   42.0952   35.0792 H   0  0  0  0  0
   32.9519   41.5135   35.0302 H   0  0  0  0  0
   32.7193   42.4642   36.5225 H   0  0  0  0  0
   33.0398   40.1497   37.1505 H   0  0  0  0  0
   34.5105   40.0348   36.1439 H   0  0  0  0  0
   33.6519   44.5009   35.1092 H   0  0  0  0  0
   33.6467   43.2447   33.8134 H   0  0  0  0  0
   36.2917   43.7198   34.3315 H   0  0  0  0  0
   35.4573   45.3768   34.3289 H   0  0  0  0  0
   36.7773   42.8331   32.1749 H   0  0  0  0  0
  1  2  1  0  0  0
  1  6  1  0  0  0
  2  3  1  0  0  0
  3  4  1  0  0  0
  4  5  1  0  0  0
  4  7  1  0  0  0
  5  6  1  0  0  0
  7  8  1  0  0  0
  8  9  1  0  0  0
  9 10  1  0  0  0
  9 11  2  0  0  0
  9 12  2  0  0  0
  2 13  1  0  0  0
  2 14  1  0  0  0
  3 15  1  0  0  0
  3 16  1  0  0  0
  4 17  1  0  0  0
  5 18  1  0  0  0
  5 19  1  0  0  0
  6 20  1  0  0  0
  6 21  1  0  0  0
  7 22  1  0  0  0
  7 23  1  0  0  0
  8 24  1  0  0  0
  8 25  1  0  0  0
 10 26  1  0  0  0
M  END
$$$$
