@<TRIPOS>MOLECULE
methanol.pdb
 6 5 0 0 0
SMALL
GASTEIGER

@<TRIPOS>ATOM
      1 C           0.0000    0.0000    0.0000 C.3     1  UNL1        0.0330
      2 H          -0.3630    1.0280    0.0000 H       1  UNL1        0.0521
      3 H          -0.3630   -0.5140   -0.8900 H       1  UNL1        0.0521
      4 H          -0.3630   -0.5140    0.8900 H       1  UNL1        0.0521
      5 O           1.3800    0.0000    0.0000 O.3     1  UNL1       -0.3982
      6 H           1.8030   -0.9060    0.0000 H       1  UNL1        0.2090
@<TRIPOS>BOND
     1     1     2    1
     2     1     3    1
     3     1     4    1
     4     1     5    1
     5     5     6    1
