@<TRIPOS>MOLECULE
18631-1
 42 43 0 0 0
SMALL
GASTEIGER
****
Schrodinger Suite 2021-3.
@<TRIPOS>ATOM
      1 C          24.0755   12.4055   30.2451 C.3     1  UNL1       -0.0306
      2 C          23.3424   11.0801   30.4647 C.3     1  UNL1        0.0884
      3 O          22.2047   11.3422   31.2813 O.3     1  UNL1       -0.4757
      4 C          21.4058   10.2921   31.7002 C.ar    1  UNL1        0.2362
      5 N          21.7494    9.0415   31.2875 N.ar    1  UNL1       -0.1966
      6 C          20.9744    8.0116   31.6611 C.ar    1  UNL1        0.1305
      7 C          19.8654    8.1565   32.4823 C.ar    1  UNL1        0.0007
      8 C          19.5167    9.4285   32.8985 C.ar    1  UNL1        0.0506
      9 N          18.3785    9.5086   33.6918 N.pl3   1  UNL1       -0.3567
     10 C          20.2859   10.5348   32.5034 C.ar    1  UNL1        0.1337
     11 C          19.9577   11.9052   32.8782 C.1     1  UNL1        0.1064
     12 N          19.7043   12.9964   33.1698 N.1     1  UNL1       -0.1906
     13 N          21.4335    6.8284   31.1203 N.am    1  UNL1       -0.2700
     14 C          20.8529    5.6284   31.0363 C.2     1  UNL1        0.2227
     15 O          19.7241    5.3670   31.4482 O.2     1  UNL1       -0.2751
     16 C          21.6449    4.5576   30.2938 C.3     1  UNL1        0.0529
     17 C          23.0457    4.3201   30.8547 C.ar    1  UNL1        0.0030
     18 C          24.1118    5.1697   30.5127 C.ar    1  UNL1        0.1237
     19 O          23.8316    6.2511   29.6969 O.3     1  UNL1       -0.4948
     20 C          24.8029    7.2847   29.5518 C.3     1  UNL1        0.0788
     21 C          25.3922    4.8833   31.0087 C.ar    1  UNL1       -0.0197
     22 C          25.6006    3.7978   31.8588 C.ar    1  UNL1       -0.0583
     23 C          24.5324    2.9786   32.2141 C.ar    1  UNL1       -0.0613
     24 C          23.2600    3.2339   31.7089 C.ar    1  UNL1       -0.0546
     25 H          24.9598   12.2663   29.6240 H       1  UNL1        0.0262
     26 H          23.4276   13.1271   29.7470 H       1  UNL1        0.0262
     27 H          24.3914   12.8398   31.1933 H       1  UNL1        0.0262
     28 H          23.0335   10.6532   29.5079 H       1  UNL1        0.0694
     29 H          24.0108   10.3654   30.9504 H       1  UNL1        0.0694
     30 H          19.2721    7.3090   32.7814 H       1  UNL1        0.0671
     31 H          17.8994    8.6601   33.9762 H       1  UNL1        0.1424
     32 H          17.9919   10.4140   33.9478 H       1  UNL1        0.1424
     33 H          22.3442    6.9276   30.6984 H       1  UNL1        0.1562
     34 H          21.0871    3.6245   30.2719 H       1  UNL1        0.0408
     35 H          21.7205    4.9000   29.2670 H       1  UNL1        0.0408
     36 H          25.0949    7.7043   30.5163 H       1  UNL1        0.0660
     37 H          25.6927    6.9310   29.0289 H       1  UNL1        0.0660
     38 H          24.3775    8.0953   28.9600 H       1  UNL1        0.0660
     39 H          26.2390    5.4990   30.7480 H       1  UNL1        0.0654
     40 H          26.5905    3.5910   32.2418 H       1  UNL1        0.0619
     41 H          24.6928    2.1325   32.8676 H       1  UNL1        0.0618
     42 H          22.4448    2.5727   31.9713 H       1  UNL1        0.0622
@<TRIPOS>BOND
     1     1     2    1
     2     1    25    1
     3     1    26    1
     4     1    27    1
     5     2     3    1
     6     2    28    1
     7     2    29    1
     8     3     4    1
     9     4    10   ar
    10     4     5   ar
    11     5     6   ar
    12     6     7   ar
    13     6    13    1
    14     7     8   ar
    15     7    30    1
    16     8     9    1
    17     8    10   ar
    18     9    31    1
    19     9    32    1
    20    10    11    1
    21    11    12    3
    22    13    14   am
    23    13    33    1
    24    14    15    2
    25    14    16    1
    26    16    17    1
    27    16    34    1
    28    16    35    1
    29    17    24   ar
    30    17    18   ar
    31    18    19    1
    32    18    21   ar
    33    19    20    1
    34    20    36    1
    35    20    37    1
    36    20    38    1
    37    21    22   ar
    38    21    39    1
    39    22    23   ar
    40    22    40    1
    41    23    24   ar
    42    23    41    1
    43    24    42    1
