@<TRIPOS>MOLECULE
Structure1
 15 14 0 0 0
SMALL
GASTEIGER
****
Structure written by MMmdl.
@<TRIPOS>ATOM
      1 C          -0.6478   -1.3529    0.0000 C.3     1  UNL1       -0.0056
      2 C           0.0000    0.0000    0.0000 C.2     1  UNL1        0.1374
      3 C           1.5000    0.0000    0.0000 C.3     1  UNL1        0.0638
      4 C           2.0000    0.0000    1.4142 C.2     1  UNL1        0.1374
      5 C           2.2159    1.3529    2.0250 C.3     1  UNL1       -0.0056
      6 O          -0.6550    1.0399   -0.0000 O.2     1  UNL1       -0.2973
      7 O           2.2183   -1.0399    2.0318 O.2     1  UNL1       -0.2973
      8 H           0.1221   -2.1244    0.0000 H       1  UNL1        0.0306
      9 H          -1.2682   -1.4587    0.8900 H       1  UNL1        0.0306
     10 H          -1.2682   -1.4587   -0.8900 H       1  UNL1        0.0306
     11 H           1.8633    0.8900   -0.5138 H       1  UNL1        0.0419
     12 H           1.8633   -0.8900   -0.5138 H       1  UNL1        0.0419
     13 H           1.9593    2.1244    1.2991 H       1  UNL1        0.0306
     14 H           1.5837    1.4587    2.9065 H       1  UNL1        0.0306
     15 H           3.2618    1.4587    2.3132 H       1  UNL1        0.0306
@<TRIPOS>BOND
     1     1     2    1
     2     1     8    1
     3     1     9    1
     4     1    10    1
     5     2     3    1
     6     2     6    2
     7     3     4    1
     8     3    11    1
     9     3    12    1
    10     4     5    1
    11     4     7    2
    12     5    13    1
    13     5    14    1
    14     5    15    1
