@<TRIPOS>MOLECULE
2-cpi.pdb
 29 31 0 0 0
SMALL
GASTEIGER

@<TRIPOS>ATOM
      1 C           0.5980   -0.2940    1.5130 C.ar    1  UNL1       -0.0526
      2 H           1.1390   -0.3910    2.4490 H       1  UNL1        0.0624
      3 C          -0.7940   -0.4410    1.4850 C.ar    1  UNL1       -0.0611
      4 H          -1.3300   -0.6510    2.4070 H       1  UNL1        0.0618
      5 C          -1.4950   -0.3260    0.2860 C.ar    1  UNL1       -0.0598
      6 H          -2.5760   -0.4480    0.2840 H       1  UNL1        0.0618
      7 C          -0.8310   -0.0560   -0.9150 C.ar    1  UNL1       -0.0378
      8 H          -1.3810    0.0310   -1.8460 H       1  UNL1        0.0638
      9 C           0.5610    0.0880   -0.8680 C.ar    1  UNL1        0.0467
     10 N           1.4660    0.3470   -1.8750 N.ar    1  UNL1       -0.3577
     11 H           1.2020    0.4720   -2.8410 H       1  UNL1        0.1656
     12 C           1.2870   -0.0280    0.3150 C.ar    1  UNL1       -0.0001
     13 C           2.6550    0.1520   -0.0200 C.ar    1  UNL1       -0.0331
     14 H           3.4890    0.1030    0.6670 H       1  UNL1        0.0641
     15 C           2.7520    0.3740   -1.3830 C.ar    1  UNL1        0.0201
     16 C           3.9870    0.5480   -2.2270 C.3     1  UNL1       -0.0007
     17 H           4.5550   -0.3880   -2.1600 H       1  UNL1        0.0363
     18 C           3.7520    0.9030   -3.6970 C.3     1  UNL1       -0.0449
     19 H           4.6360    0.6080   -4.2780 H       1  UNL1        0.0272
     20 H           2.8960    0.4050   -4.1600 H       1  UNL1        0.0272
     21 C           3.6310    2.4250   -3.7430 C.3     1  UNL1       -0.0524
     22 H           4.1290    2.8280   -4.6320 H       1  UNL1        0.0265
     23 H           2.5810    2.7330   -3.7890 H       1  UNL1        0.0265
     24 C           4.2750    2.9440   -2.4600 C.3     1  UNL1       -0.0524
     25 H           5.0500    3.6900   -2.6640 H       1  UNL1        0.0265
     26 H           3.5160    3.4240   -1.8310 H       1  UNL1        0.0265
     27 C           4.8530    1.7210   -1.7560 C.3     1  UNL1       -0.0449
     28 H           5.8860    1.5690   -2.0930 H       1  UNL1        0.0272
     29 H           4.8800    1.8540   -0.6700 H       1  UNL1        0.0272
@<TRIPOS>BOND
     1     1     2    1
     2     1     3   ar
     3     1    12   ar
     4     3     4    1
     5     3     5   ar
     6     5     6    1
     7     5     7   ar
     8     7     8    1
     9     7     9   ar
    10     9    10   ar
    11     9    12   ar
    12    10    15   ar
    13    10    11    1
    14    12    13   ar
    15    13    15   ar
    16    13    14    1
    17    15    16    1
    18    16    17    1
    19    16    18    1
    20    16    27    1
    21    18    19    1
    22    18    20    1
    23    18    21    1
    24    21    22    1
    25    21    23    1
    26    21    24    1
    27    24    25    1
    28    24    26    1
    29    24    27    1
    30    27    28    1
    31    27    29    1
