@<TRIPOS>MOLECULE
BMI_original
 49 53 0 0 0
SMALL
GASTEIGER
****
Structure written by MMmdl.
@<TRIPOS>ATOM
      1 C           3.7074   -4.4467   18.4699 C.ar    1  UNL1        0.2612
      2 O           3.7349   -5.4711   17.7892 O.2     1  UNL1       -0.2671
      3 N           4.3967   -3.2965   22.0409 N.pl3   1  UNL1       -0.3375
      4 N           3.3367   -3.2437   17.9507 N.ar    1  UNL1       -0.3284
      5 C           4.0292   -3.2712   20.6281 C.ar    1  UNL1        0.0448
      6 C           3.6207   -2.0237   19.9958 C.ar    1  UNL1       -0.0239
      7 C           3.2968   -2.0837   18.6875 C.ar    1  UNL1        0.0067
      8 C           5.5099   -2.4826   22.5203 C.3     1  UNL1        0.0515
      9 C           8.7400   -3.9813   21.2218 C.ar    1  UNL1       -0.0586
     10 C           7.5617   -3.2373   21.2794 C.ar    1  UNL1       -0.0388
     11 C           9.1076   -4.7458   22.3269 C.ar    1  UNL1       -0.0436
     12 C           6.7813   -3.2738   22.4338 C.ar    1  UNL1        0.0582
     13 N           7.1278   -4.0141   23.5169 N.ar    1  UNL1       -0.2583
     14 C           8.2780   -4.7339   23.4474 C.ar    1  UNL1        0.0279
     15 C           4.0633   -4.4080   19.8868 C.ar    1  UNL1        0.1022
     16 C           5.0069  -12.3337   20.8790 C.ar    1  UNL1        0.0293
     17 C           5.5847   -9.9547   21.5500 C.ar    1  UNL1        0.0498
     18 C           5.1556   -9.2346   20.4316 C.ar    1  UNL1       -0.0123
     19 N           5.8348  -11.3874   21.4230 N.ar    1  UNL1       -0.3058
     20 C           6.9575  -12.0569   21.8297 C.ar    1  UNL1        0.1004
     21 N           6.8850  -13.3440   21.5779 N.ar    1  UNL1       -0.2437
     22 C           5.7060  -13.5254   21.0009 C.ar    1  UNL1        0.0458
     23 C           4.9313   -7.8677   20.6087 C.ar    1  UNL1        0.0687
     24 N           4.8378   -5.8834   21.7705 N.ar    1  UNL1       -0.2272
     25 C           4.4814   -5.7011   20.5216 C.ar    1  UNL1        0.1463
     26 N           4.5175   -6.8543   19.7754 N.ar    1  UNL1       -0.3376
     27 C           5.1245   -7.2240   21.8566 C.ar    1  UNL1        0.0925
     28 C           5.5548   -7.9744   22.9567 C.ar    1  UNL1       -0.0211
     29 C           5.7812   -9.3421   22.7871 C.ar    1  UNL1       -0.0328
     30 C           5.7673   -7.3186   24.2890 C.3     1  UNL1       -0.0376
     31 H           3.8680   -3.8913   22.7025 H       1  UNL1        0.1465
     32 H           3.0902   -3.2666   16.9723 H       1  UNL1        0.1683
     33 H           3.5795   -1.0941   20.5500 H       1  UNL1        0.0651
     34 H           2.9776   -1.2320   18.0982 H       1  UNL1        0.0808
     35 H           5.3304   -2.1956   23.5564 H       1  UNL1        0.0526
     36 H           5.5967   -1.5871   21.9051 H       1  UNL1        0.0526
     37 H           9.3579   -3.9650   20.3342 H       1  UNL1        0.0619
     38 H           7.2541   -2.6357   20.4350 H       1  UNL1        0.0636
     39 H          10.0145   -5.3349   22.3174 H       1  UNL1        0.0633
     40 H           8.5394   -5.3192   24.3209 H       1  UNL1        0.0829
     41 H           4.0345  -12.0854   20.4705 H       1  UNL1        0.0829
     42 H           5.0063   -9.7196   19.4766 H       1  UNL1        0.0659
     43 H           7.7764  -11.5221   22.2998 H       1  UNL1        0.1032
     44 H           5.3628  -14.5012   20.6764 H       1  UNL1        0.0845
     45 H           4.2723   -6.8923   18.7908 H       1  UNL1        0.1674
     46 H           6.1144   -9.9381   23.6273 H       1  UNL1        0.0641
     47 H           6.0998   -8.0637   25.0118 H       1  UNL1        0.0278
     48 H           6.5249   -6.5407   24.1944 H       1  UNL1        0.0278
     49 H           4.8315   -6.8749   24.6289 H       1  UNL1        0.0278
@<TRIPOS>BOND
     1     1     2    2
     2     1     4   ar
     3     1    15   ar
     4     3     5    1
     5     3     8    1
     6     3    31    1
     7     4     7   ar
     8     4    32    1
     9     5     6   ar
    10     5    15   ar
    11     6     7   ar
    12     6    33    1
    13     7    34    1
    14     8    12    1
    15     8    35    1
    16     8    36    1
    17     9    11   ar
    18     9    10   ar
    19     9    37    1
    20    10    12   ar
    21    10    38    1
    22    11    14   ar
    23    11    39    1
    24    12    13   ar
    25    13    14   ar
    26    14    40    1
    27    15    25    1
    28    16    19   ar
    29    16    22   ar
    30    16    41    1
    31    17    18   ar
    32    17    19    1
    33    17    29   ar
    34    18    23   ar
    35    18    42    1
    36    19    20   ar
    37    20    21   ar
    38    20    43    1
    39    21    22   ar
    40    22    44    1
    41    23    26   ar
    42    23    27   ar
    43    24    25   ar
    44    24    27   ar
    45    25    26   ar
    46    26    45    1
    47    27    28   ar
    48    28    29   ar
    49    28    30    1
    50    29    46    1
    51    30    47    1
    52    30    48    1
    53    30    49    1
