@<TRIPOS>MOLECULE
ethane.pdb
 8 7 0 0 0
SMALL
GASTEIGER

@<TRIPOS>ATOM
      1 C           1.5300    0.0000    0.0000 C.3     1  UNL1       -0.0681
      2 H           1.8930    1.0280    0.0000 H       1  UNL1        0.0227
      3 H           1.8930   -0.5140    0.8900 H       1  UNL1        0.0227
      4 H           1.8930   -0.5140   -0.8900 H       1  UNL1        0.0227
      5 C           0.0000    0.0000    0.0000 C.3     1  UNL1       -0.0681
      6 H          -0.3630   -1.0280    0.0000 H       1  UNL1        0.0227
      7 H          -0.3630    0.5140   -0.8900 H       1  UNL1        0.0227
      8 H          -0.3630    0.5140    0.8900 H       1  UNL1        0.0227
@<TRIPOS>BOND
     1     1     5    1
     2     1     2    1
     3     1     3    1
     4     1     4    1
     5     5     6    1
     6     5     7    1
     7     5     8    1
