1a0t_ligand
  -I-interpret- 

 45 46  0  0  0  0  0  0  0  0999 V2000
  -44.9520  -14.6450  -14.2580 C   0  0  0  0  0
  -43.9740  -15.8130  -14.4360 C   0  0  0  0  0
  -44.3250  -16.9490  -13.4760 C   0  0  0  0  0
  -44.2860  -16.4420  -12.0850 C   0  0  0  0  0
  -45.2770  -15.3040  -11.9210 C   0  0  0  0  0
  -45.2450  -14.7580  -10.5290 C   0  0  0  0  0
  -46.2730  -15.0610  -14.6480 O   0  0  0  0  0
  -43.9850  -16.2330  -15.8010 O   0  0  0  0  0
  -43.3750  -17.9870  -13.6420 O   0  0  0  0  0
  -44.6130  -17.5380  -11.1870 O   0  0  0  0  0
  -44.9180  -14.2440  -12.8600 O   0  0  0  0  0
  -46.1150  -15.5190   -9.6790 O   0  0  0  0  0
  -47.2710  -13.5190  -16.2880 C   0  0  0  0  0
  -47.2900  -14.0250  -14.8500 C   0  0  0  0  0
  -48.6560  -14.5810  -14.3610 C   0  0  0  0  0
  -48.6700  -14.1750  -12.9030 C   0  0  0  0  0
  -48.0640  -12.7740  -13.0260 C   0  0  0  0  0
  -47.5100  -12.1450  -11.7790 C   0  0  0  0  0
  -48.4900  -12.8180  -16.5360 O   0  0  0  0  0
  -47.0210  -12.9340  -14.0020 O   0  0  0  0  0
  -48.8650  -15.9510  -14.6060 O   0  0  0  0  0
  -50.0050  -14.1820  -12.3880 O   0  0  0  0  0
  -47.9020  -12.8310  -10.6210 O   0  0  0  0  0
  -44.6712  -13.7986  -14.8847 H   0  0  0  0  0
  -42.9610  -15.4936  -14.1912 H   0  0  0  0  0
  -45.3246  -17.3300  -13.6851 H   0  0  0  0  0
  -43.2920  -16.0613  -11.8501 H   0  0  0  0  0
  -46.2823  -15.6765  -12.1176 H   0  0  0  0  0
  -45.5789  -13.7205  -10.5446 H   0  0  0  0  0
  -44.2269  -14.8194  -10.1446 H   0  0  0  0  0
  -43.7597  -15.4897  -16.3652 H   0  0  0  0  0
  -43.4084  -18.3083  -14.5460 H   0  0  0  0  0
  -43.9768  -18.2472  -11.3046 H   0  0  0  0  0
  -46.0860  -15.1596   -8.7893 H   0  0  0  0  0
  -47.1768  -14.3582  -16.9772 H   0  0  0  0  0
  -46.4211  -12.8532  -16.4376 H   0  0  0  0  0
  -49.5009  -14.1742  -14.9167 H   0  0  0  0  0
  -48.1352  -14.8250  -12.2105 H   0  0  0  0  0
  -48.8620  -12.0801  -13.2901 H   0  0  0  0  0
  -47.8913  -11.1259  -11.7150 H   0  0  0  0  0
  -46.4220  -12.1744  -11.8388 H   0  0  0  0  0
  -48.4927  -12.4928  -17.4392 H   0  0  0  0  0
  -49.7284  -16.2064  -14.2730 H   0  0  0  0  0
  -49.9917  -13.9222  -11.4639 H   0  0  0  0  0
  -47.5273  -12.3970   -9.8510 H   0  0  0  0  0
  1  2  1  0  0  0
  1  7  1  0  0  0
  1 11  1  0  0  0
  2  3  1  0  0  0
  2  8  1  0  0  0
  3  4  1  0  0  0
  3  9  1  0  0  0
  4  5  1  0  0  0
  4 10  1  0  0  0
  5  6  1  0  0  0
  5 11  1  0  0  0
  6 12  1  0  0  0
  7 14  1  0  0  0
 14 13  1  0  0  0
 13 19  1  0  0  0
 14 15  1  0  0  0
 14 20  1  0  0  0
 15 16  1  0  0  0
 15 21  1  0  0  0
 16 17  1  0  0  0
 16 22  1  0  0  0
 17 18  1  0  0  0
 17 20  1  0  0  0
 18 23  1  0  0  0
  1 24  1  0  0  0
  2 25  1  0  0  0
  3 26  1  0  0  0
  4 27  1  0  0  0
  5 28  1  0  0  0
  6 29  1  0  0  0
  6 30  1  0  0  0
  8 31  1  0  0  0
  9 32  1  0  0  0
 10 33  1  0  0  0
 12 34  1  0  0  0
 13 35  1  0  0  0
 13 36  1  0  0  0
 15 37  1  0  0  0
 16 38  1  0  0  0
 17 39  1  0  0  0
 18 40  1  0  0  0
 18 41  1  0  0  0
 19 42  1  0  0  0
 21 43  1  0  0  0
 22 44  1  0  0  0
 23 45  1  0  0  0
M  END
$$$$
