1a1e_ligand
  -I-interpret- 

 76 77  0  0  0  0  0  0  0  0999 V2000
   43.2930   -8.1280   37.5500 C   0  0  0  0  0
   44.0670   -7.1860   37.7880 O   0  0  0  0  0
   43.5190   -9.0100   36.3320 C   0  0  0  0  0
   42.1690   -8.3110   38.2080 N   0  0  0  0  0
   41.8750   -7.5040   39.3540 C   0  0  0  0  0
   42.3970   -8.1890   40.5900 C   0  0  0  0  0
   42.8670   -9.3290   40.5910 O   0  0  0  0  0
   40.3910   -7.2910   39.3740 C   0  0  0  0  0
   40.0200   -6.4670   38.1650 C   0  0  0  0  0
   39.4330   -7.0660   37.0710 C   0  0  0  0  0
   40.2030   -5.0890   38.1630 C   0  0  0  0  0
   39.0230   -6.2990   35.9910 C   0  0  0  0  0
   39.7950   -4.3030   37.0800 C   0  0  0  0  0
   39.1970   -4.9130   35.9920 C   0  0  0  0  0
   38.7140   -4.1030   34.8990 O   0  0  0  0  0
   39.5630   -3.9590   33.5410 P   0  0  0  0  0
   39.2960   -5.2230   32.8550 O   0  0  0  0  0
   38.9860   -2.7290   32.9200 O   0  0  0  0  0
   40.9750   -3.8330   34.0580 O   0  0  0  0  0
   42.3460   -7.4520   41.6620 N   0  0  0  0  0
   42.8210   -7.9260   42.9250 C   0  0  0  0  0
   41.6490   -8.4730   43.7280 C   0  0  0  0  0
   40.5250   -7.9950   43.5040 O   0  0  0  0  0
   43.4630   -6.7590   43.6070 C   0  0  0  0  0
   44.7130   -6.2540   42.9200 C   0  0  0  0  0
   45.8500   -7.2030   43.1550 C   0  0  0  0  0
   46.3510   -7.2360   44.2790 O   0  0  0  0  0
   46.2130   -7.9200   42.2380 O   0  0  0  0  0
   41.7710   -9.4590   44.6560 N   0  0  0  0  0
   43.0100  -10.2080   44.8790 C   0  0  0  0  0
   40.6720   -9.7740   45.5450 C   0  0  0  0  0
   43.5030   -9.7480   46.2370 C   0  0  0  0  0
   42.3970   -9.9440   47.2660 C   0  0  0  0  0
   41.0210   -9.3410   46.9320 C   0  0  0  0  0
   40.9160   -7.8430   47.1120 C   0  0  0  0  0
   41.2000   -7.5140   48.5540 C   0  0  0  0  0
   41.5460   -6.0620   48.7310 C   0  0  0  0  0
   40.3430   -5.2830   48.3020 C   0  0  0  0  0
   43.4766   -8.3995   35.4300 H   0  0  0  0  0
   44.4975   -9.4847   36.4053 H   0  0  0  0  0
   42.7444   -9.7758   36.2907 H   0  0  0  0  0
   41.5084   -9.0258   37.9029 H   0  0  0  0  0
   42.3621   -6.5296   39.3166 H   0  0  0  0  0
   40.0979   -6.7724   40.2868 H   0  0  0  0  0
   39.8732   -8.2498   39.3488 H   0  0  0  0  0
   39.2906   -8.1465   37.0548 H   0  0  0  0  0
   40.6737   -4.6114   39.0223 H   0  0  0  0  0
   38.5596   -6.7832   35.1314 H   0  0  0  0  0
   39.9464   -3.2236   37.0934 H   0  0  0  0  0
   39.2218   -1.9638   33.4495 H   0  0  0  0  0
   41.0802   -2.9845   34.4945 H   0  0  0  0  0
   41.9568   -6.5112   41.5994 H   0  0  0  0  0
   43.5443   -8.7343   42.8174 H   0  0  0  0  0
   43.7536   -7.0881   44.6047 H   0  0  0  0  0
   42.7396   -5.9437   43.6010 H   0  0  0  0  0
   44.9737   -5.2764   43.3255 H   0  0  0  0  0
   44.5263   -6.1780   41.8488 H   0  0  0  0  0
   45.9155   -6.5912   44.8413 H   0  0  0  0  0
   43.7443  -10.0192   44.0959 H   0  0  0  0  0
   42.8432  -11.2848   44.8517 H   0  0  0  0  0
   40.4886  -10.8484   45.5329 H   0  0  0  0  0
   39.7737   -9.2525   45.2145 H   0  0  0  0  0
   43.7744   -8.6934   46.1890 H   0  0  0  0  0
   44.3774  -10.3316   46.5250 H   0  0  0  0  0
   42.7351   -9.4347   48.1684 H   0  0  0  0  0
   42.2421  -11.0206   47.3364 H   0  0  0  0  0
   40.2986   -9.7185   47.6557 H   0  0  0  0  0
   39.9151   -7.5052   46.8434 H   0  0  0  0  0
   41.6357   -7.3393   46.4667 H   0  0  0  0  0
   42.0485   -8.1134   48.8839 H   0  0  0  0  0
   40.3061   -7.7294   49.1394 H   0  0  0  0  0
   42.4179   -5.7932   48.1347 H   0  0  0  0  0
   41.8015   -5.8454   49.7683 H   0  0  0  0  0
   40.1201   -5.5064   47.2587 H   0  0  0  0  0
   39.4918   -5.5597   48.9240 H   0  0  0  0  0
   40.5437   -4.2173   48.4118 H   0  0  0  0  0
  1  2  2  0  0  0
  1  3  1  0  0  0
  5  4  1  0  0  0
  5  8  1  0  0  0
  6  5  1  0  0  0
  6  7  2  0  0  0
  8  9  1  0  0  0
  9 11  4  0  0  0
  9 10  4  0  0  0
 10 12  4  0  0  0
 12 14  4  0  0  0
 14 15  1  0  0  0
 13 14  4  0  0  0
 11 13  4  0  0  0
 15 16  1  0  0  0
 16 19  1  0  0  0
 16 18  1  0  0  0
 16 17  2  0  0  0
 22 21  1  0  0  0
 21 24  1  0  0  0
 21 20  1  0  0  0
 24 25  1  0  0  0
 25 26  1  0  0  0
 26 27  1  0  0  0
 26 28  2  0  0  0
 22 23  2  0  0  0
 29 31  1  0  0  0
 29 30  1  0  0  0
 30 32  1  0  0  0
 32 33  1  0  0  0
 34 33  1  0  0  0
 34 35  1  0  0  0
 31 34  1  0  0  0
 35 36  1  0  0  0
 36 37  1  0  0  0
 37 38  1  0  0  0
  4  1  1  0  0  0
 20  6  1  0  0  0
 22 29  1  0  0  0
  3 39  1  0  0  0
  3 40  1  0  0  0
  3 41  1  0  0  0
  4 42  1  0  0  0
  5 43  1  0  0  0
  8 44  1  0  0  0
  8 45  1  0  0  0
 10 46  1  0  0  0
 11 47  1  0  0  0
 12 48  1  0  0  0
 13 49  1  0  0  0
 18 50  1  0  0  0
 19 51  1  0  0  0
 20 52  1  0  0  0
 21 53  1  0  0  0
 24 54  1  0  0  0
 24 55  1  0  0  0
 25 56  1  0  0  0
 25 57  1  0  0  0
 27 58  1  0  0  0
 30 59  1  0  0  0
 30 60  1  0  0  0
 31 61  1  0  0  0
 31 62  1  0  0  0
 32 63  1  0  0  0
 32 64  1  0  0  0
 33 65  1  0  0  0
 33 66  1  0  0  0
 34 67  1  0  0  0
 35 68  1  0  0  0
 35 69  1  0  0  0
 36 70  1  0  0  0
 36 71  1  0  0  0
 37 72  1  0  0  0
 37 73  1  0  0  0
 38 74  1  0  0  0
 38 75  1  0  0  0
 38 76  1  0  0  0
M  END
$$$$
