1a2c_ligand
  -I-interpret- 

 91 93  0  0  0  0  0  0  0  0999 V2000
   16.1150  -18.1270   21.9550 O   0  0  0  0  0
   13.0940  -17.6970   23.8350 O   0  0  0  0  0
   15.4060  -20.9170   28.1120 O   0  0  0  0  0
   15.2360  -17.7810   22.7540 C   0  0  0  0  0
   13.8180  -18.3070   22.7360 C   0  0  0  0  0
   13.7910  -19.8430   22.8730 C   0  0  0  0  0
   14.2690  -20.3830   24.1940 C   0  0  0  0  0
   13.3540  -20.7060   25.1210 C   0  0  0  0  0
   13.7420  -20.8120   26.4210 C   0  0  0  0  0
   15.0680  -20.7230   26.7550 C   0  0  0  0  0
   15.9950  -20.5080   25.8180 C   0  0  0  0  0
   15.6020  -20.3590   24.5100 C   0  0  0  0  0
   15.4220  -16.8730   23.7010 N   0  0  0  0  0
   16.5660  -16.0380   24.0450 C   0  0  0  0  0
   16.4450  -14.9470   23.0150 C   0  0  0  0  0
   15.4510  -14.2040   23.1150 O   0  0  0  0  0
   17.7670  -16.9500   24.2180 C   0  0  0  0  0
   17.6580  -17.6860   25.5470 C   0  0  0  0  0
   18.5880  -17.0490   26.5540 C   0  0  0  0  0
   16.2430  -17.5850   26.1220 C   0  0  0  0  0
   15.5220  -13.9470   19.7680 O   0  0  0  0  0
   20.4090  -17.4610   20.1070 O   0  0  0  0  0
   17.2620  -14.7610   21.9760 N   0  0  0  0  0
   16.0070  -13.1080   20.5290 C   0  0  0  0  0
   17.1510  -13.5110   21.3110 C   0  0  0  0  0
   18.5360  -13.2750   20.6590 C   0  0  0  0  0
   19.5390  -14.1750   21.3630 C   0  0  0  0  0
   20.8410  -14.3950   20.6040 C   0  0  0  0  0
   20.6070  -15.1310   19.2150 C   0  0  0  0  0
   19.7300  -16.3680   19.4980 C   0  0  0  0  0
   18.3280  -16.0470   20.1460 C   0  0  0  0  0
   18.5180  -15.3340   21.5870 C   0  0  0  0  0
   15.7610  -11.0520   17.9370 O   0  0  0  0  0
   15.4610  -11.8910   20.5710 N   0  0  0  0  0
   11.4980  -12.1600   23.6800 N   0  0  0  0  0
   10.1570  -12.8340   25.4680 N   0  0  0  0  0
   10.3670  -10.5480   25.0080 N   0  0  0  0  0
   14.2540  -11.6070   19.9070 C   0  0  0  0  0
   13.2090  -10.8090   20.7390 C   0  0  0  0  0
   13.1740  -11.7830   21.9080 C   0  0  0  0  0
   12.2180  -11.1000   22.9290 C   0  0  0  0  0
   10.6740  -11.8330   24.7200 C   0  0  0  0  0
   14.5510  -10.6980   18.7130 C   0  0  0  0  0
   13.1166  -16.7419   23.7407 H   0  0  0  0  0
   16.3561  -20.8308   28.2195 H   0  0  0  0  0
   13.3512  -18.0546   21.7839 H   0  0  0  0  0
   14.4680  -20.2347   22.1138 H   0  0  0  0  0
   12.7487  -20.1457   22.7723 H   0  0  0  0  0
   12.3162  -20.8807   24.8371 H   0  0  0  0  0
   12.9953  -20.9683   27.1995 H   0  0  0  0  0
   17.0497  -20.4515   26.0875 H   0  0  0  0  0
   16.3476  -20.2222   23.7268 H   0  0  0  0  0
   14.6110  -16.7317   24.3033 H   0  0  0  0  0
   16.6532  -15.5095   24.9943 H   0  0  0  0  0
   18.6801  -16.3548   24.2060 H   0  0  0  0  0
   17.7944  -17.6734   23.4031 H   0  0  0  0  0
   17.9135  -18.7299   25.3649 H   0  0  0  0  0
   19.6131  -17.1083   26.1883 H   0  0  0  0  0
   18.3104  -16.0042   26.6929 H   0  0  0  0  0
   18.5088  -17.5768   27.5044 H   0  0  0  0  0
   15.9916  -16.5367   26.2830 H   0  0  0  0  0
   15.5348  -18.0262   25.4206 H   0  0  0  0  0
   16.1985  -18.1204   27.0704 H   0  0  0  0  0
   19.7913  -18.1826   20.2459 H   0  0  0  0  0
   16.8678  -12.8039   22.0907 H   0  0  0  0  0
   18.8289  -12.2299   20.7594 H   0  0  0  0  0
   18.4987  -13.5088   19.5950 H   0  0  0  0  0
   20.0479  -13.8478   22.2697 H   0  0  0  0  0
   21.4892  -15.0223   21.2159 H   0  0  0  0  0
   21.2851  -13.4204   20.4015 H   0  0  0  0  0
   21.5578  -15.4272   18.7720 H   0  0  0  0  0
   20.1154  -14.4655   18.5054 H   0  0  0  0  0
   19.4908  -16.7306   18.4983 H   0  0  0  0  0
   17.7795  -16.9790   20.2821 H   0  0  0  0  0
   17.7799  -15.3732   19.4875 H   0  0  0  0  0
   18.8568  -16.0356   22.3493 H   0  0  0  0  0
   15.8677  -10.4317   17.2121 H   0  0  0  0  0
   15.9286  -11.1516   21.0954 H   0  0  0  0  0
   11.6193  -13.1382   23.4178 H   0  0  0  0  0
    9.5363  -12.6193   26.2484 H   0  0  0  0  0
   10.3878  -13.8037   25.2518 H   0  0  0  0  0
   10.7535   -9.7922   24.4424 H   0  0  0  0  0
   13.8422  -12.5861   19.6622 H   0  0  0  0  0
   12.2582  -10.5893   20.2535 H   0  0  0  0  0
   13.4529   -9.7721   20.9702 H   0  0  0  0  0
   14.1640  -11.9679   22.3249 H   0  0  0  0  0
   12.8284  -12.7739   21.6134 H   0  0  0  0  0
   11.5043  -10.4650   22.4041 H   0  0  0  0  0
   12.7906  -10.4788   23.6177 H   0  0  0  0  0
   13.7047  -10.7892   18.0321 H   0  0  0  0  0
   14.7180   -9.6985   19.1145 H   0  0  0  0  0
  4  1  2  0  0  0
  4  5  1  0  0  0
  5  2  1  0  0  0
  5  6  1  0  0  0
  6  7  1  0  0  0
  7 12  4  0  0  0
  7  8  4  0  0  0
  8  9  4  0  0  0
  9 10  4  0  0  0
 10  3  1  0  0  0
 11 10  4  0  0  0
 12 11  4  0  0  0
 15 14  1  0  0  0
 14 17  1  0  0  0
 14 13  1  0  0  0
 17 18  1  0  0  0
 18 20  1  0  0  0
 18 19  1  0  0  0
 15 16  2  0  0  0
 24 21  2  0  0  0
 25 24  1  0  0  0
 23 25  1  0  0  0
 25 26  1  0  0  0
 27 26  1  0  0  0
 32 27  1  0  0  0
 27 28  1  0  0  0
 28 29  1  0  0  0
 30 29  1  0  0  0
 30 22  1  0  0  0
 31 30  1  0  0  0
 32 31  1  0  0  0
 23 32  1  0  0  0
 43 33  1  0  0  0
 38 43  1  0  0  0
 38 39  1  0  0  0
 34 38  1  0  0  0
 39 40  1  0  0  0
 40 41  1  0  0  0
 41 35  1  0  0  0
 35 42  1  0  0  0
 42 36  1  0  0  0
 42 37  2  0  0  0
 13  4  1  0  0  0
 24 34  1  0  0  0
 23 15  1  0  0  0
  2 44  1  0  0  0
  3 45  1  0  0  0
  5 46  1  0  0  0
  6 47  1  0  0  0
  6 48  1  0  0  0
  8 49  1  0  0  0
  9 50  1  0  0  0
 11 51  1  0  0  0
 12 52  1  0  0  0
 13 53  1  0  0  0
 14 54  1  0  0  0
 17 55  1  0  0  0
 17 56  1  0  0  0
 18 57  1  0  0  0
 19 58  1  0  0  0
 19 59  1  0  0  0
 19 60  1  0  0  0
 20 61  1  0  0  0
 20 62  1  0  0  0
 20 63  1  0  0  0
 22 64  1  0  0  0
 25 65  1  0  0  0
 26 66  1  0  0  0
 26 67  1  0  0  0
 27 68  1  0  0  0
 28 69  1  0  0  0
 28 70  1  0  0  0
 29 71  1  0  0  0
 29 72  1  0  0  0
 30 73  1  0  0  0
 31 74  1  0  0  0
 31 75  1  0  0  0
 32 76  1  0  0  0
 33 77  1  0  0  0
 34 78  1  0  0  0
 35 79  1  0  0  0
 36 80  1  0  0  0
 36 81  1  0  0  0
 37 82  1  0  0  0
 38 83  1  0  0  0
 39 84  1  0  0  0
 39 85  1  0  0  0
 40 86  1  0  0  0
 40 87  1  0  0  0
 41 88  1  0  0  0
 41 89  1  0  0  0
 43 90  1  0  0  0
 43 91  1  0  0  0
M  END
$$$$
