1a4h_ligand
  -I-interpret- 

 80 81  0  0  0  0  0  0  0  0999 V2000
   11.8980   -4.1060   -0.0770 O   0  0  0  0  0
   18.3160   -2.7340   -2.3380 O   0  0  0  0  0
   18.3060   -4.3960   -4.5700 O   0  0  0  0  0
   19.8210   -3.2570   -5.7130 O   0  0  0  0  0
   14.6760   -1.0450   -9.5010 O   0  0  0  0  0
   14.5630    1.4480   -7.6390 O   0  0  0  0  0
   11.4380   -4.4140   -8.2560 O   0  0  0  0  0
   13.2010   -6.3020   -6.5970 O   0  0  0  0  0
   10.4770   -2.6280   -3.8990 O   0  0  0  0  0
   11.4190   -4.6210   -2.3080 N   0  0  0  0  0
   20.4610   -5.0930   -4.8510 N   0  0  0  0  0
   11.9460   -3.7710   -1.2720 C   0  0  0  0  0
   12.5870   -2.3550   -1.4050 C   0  0  0  0  0
   13.8180   -2.4080   -2.0340 C   0  0  0  0  0
   14.9020   -1.4030   -2.2370 C   0  0  0  0  0
   16.1950   -1.7270   -2.5680 C   0  0  0  0  0
   17.0050   -3.0090   -2.8250 C   0  0  0  0  0
   17.4520   -3.2520   -4.2950 C   0  0  0  0  0
   16.4810   -3.2080   -5.4570 C   0  0  0  0  0
   16.6800   -2.3600   -6.4830 C   0  0  0  0  0
   16.0410   -1.9750   -7.8000 C   0  0  0  0  0
   15.4340   -0.6540   -8.3270 C   0  0  0  0  0
   14.4320    0.0620   -7.3810 C   0  0  0  0  0
   12.9420   -0.2680   -7.5260 C   0  0  0  0  0
   12.3710   -0.8080   -6.1990 C   0  0  0  0  0
   11.2230   -1.8470   -6.5040 C   0  0  0  0  0
   11.3620   -3.2860   -6.0250 C   0  0  0  0  0
   11.7230   -4.3680   -6.8230 C   0  0  0  0  0
   12.4560   -5.5300   -6.0180 C   0  0  0  0  0
   12.2040   -5.6850   -4.5400 C   0  0  0  0  0
   11.5380   -4.7180   -3.8510 C   0  0  0  0  0
   11.0800   -3.4780   -4.5510 C   0  0  0  0  0
   12.0120   -1.0670   -0.6620 C   0  0  0  0  0
   18.5220   -2.7580   -0.9420 C   0  0  0  0  0
   19.5210   -4.1680   -5.0030 C   0  0  0  0  0
   15.7880   -4.5240   -5.3980 C   0  0  0  0  0
   17.2630   -2.2560   -8.6650 C   0  0  0  0  0
   15.1580    2.2530   -6.6380 C   0  0  0  0  0
   12.3020    0.2910   -5.0710 C   0  0  0  0  0
   10.6420   -5.3620   -9.1330 C   0  0  0  0  0
   14.2647   -0.2687   -9.8881 H   0  0  0  0  0
   10.8104   -5.3465   -1.9291 H   0  0  0  0  0
   21.3583   -4.9910   -5.3253 H   0  0  0  0  0
   20.2860   -5.9057   -4.2600 H   0  0  0  0  0
   14.0414   -3.3818   -2.4698 H   0  0  0  0  0
   14.6529   -0.3488   -2.1154 H   0  0  0  0  0
   16.8133   -0.8361   -2.6782 H   0  0  0  0  0
   16.3805   -3.8076   -2.4247 H   0  0  0  0  0
   17.9893   -2.3038   -4.2774 H   0  0  0  0  0
   17.5790   -1.7675   -6.3130 H   0  0  0  0  0
   15.0667   -2.4616   -7.7549 H   0  0  0  0  0
   16.2547    0.0477   -8.4762 H   0  0  0  0  0
   14.6965   -0.2797   -6.3803 H   0  0  0  0  0
   12.8234   -1.0299   -8.2964 H   0  0  0  0  0
   12.4047    0.6410   -7.7966 H   0  0  0  0  0
   13.0404   -1.4572   -5.6346 H   0  0  0  0  0
   11.1994   -1.9199   -7.5913 H   0  0  0  0  0
   10.3542   -1.4619   -5.9702 H   0  0  0  0  0
   12.5568   -6.5758   -4.0202 H   0  0  0  0  0
   12.6854   -0.7851    0.1474 H   0  0  0  0  0
   11.9319   -0.2446   -1.3728 H   0  0  0  0  0
   11.0269   -1.2938   -0.2544 H   0  0  0  0  0
   17.8811   -2.0142   -0.4686 H   0  0  0  0  0
   18.2776   -3.7480   -0.5569 H   0  0  0  0  0
   19.5659   -2.5303   -0.7261 H   0  0  0  0  0
   14.7463   -4.3982   -5.6933 H   0  0  0  0  0
   16.2778   -5.2219   -6.0771 H   0  0  0  0  0
   15.8342   -4.9122   -4.3805 H   0  0  0  0  0
   18.0899   -1.6248   -8.3395 H   0  0  0  0  0
   17.5436   -3.3045   -8.5655 H   0  0  0  0  0
   17.0268   -2.0390   -9.7067 H   0  0  0  0  0
   14.5693    2.1871   -5.7230 H   0  0  0  0  0
   16.1715    1.9012   -6.4455 H   0  0  0  0  0
   15.1897    3.2883   -6.9774 H   0  0  0  0  0
   13.3046    0.6699   -4.8729 H   0  0  0  0  0
   11.6617    1.1090   -5.4012 H   0  0  0  0  0
   11.8921   -0.1487   -4.1617 H   0  0  0  0  0
   11.0640   -6.3643   -9.0589 H   0  0  0  0  0
    9.6042   -5.3778   -8.8002 H   0  0  0  0  0
   10.6879   -5.0227  -10.1678 H   0  0  0  0  0
 12  1  2  0  0  0
 17  2  1  0  0  0
  2 34  1  0  0  0
 18  3  1  0  0  0
  3 35  1  0  0  0
 35  4  2  0  0  0
 22  5  1  0  0  0
 23  6  1  0  0  0
  6 38  1  0  0  0
 28  7  1  0  0  0
  7 40  1  0  0  0
 29  8  2  0  0  0
 32  9  2  0  0  0
 12 10  1  0  0  0
 10 31  1  0  0  0
 35 11  1  0  0  0
 13 12  1  0  0  0
 14 13  2  0  0  0
 13 33  1  0  0  0
 15 14  1  0  0  0
 16 15  2  0  0  0
 17 16  1  0  0  0
 18 17  1  0  0  0
 19 18  1  0  0  0
 20 19  2  0  0  0
 19 36  1  0  0  0
 21 20  1  0  0  0
 22 21  1  0  0  0
 21 37  1  0  0  0
 23 22  1  0  0  0
 24 23  1  0  0  0
 25 24  1  0  0  0
 26 25  1  0  0  0
 25 39  1  0  0  0
 27 26  1  0  0  0
 28 27  2  0  0  0
 27 32  1  0  0  0
 28 29  1  0  0  0
 29 30  1  0  0  0
 30 31  2  0  0  0
 31 32  1  0  0  0
  5 41  1  0  0  0
 10 42  1  0  0  0
 11 43  1  0  0  0
 11 44  1  0  0  0
 14 45  1  0  0  0
 15 46  1  0  0  0
 16 47  1  0  0  0
 17 48  1  0  0  0
 18 49  1  0  0  0
 20 50  1  0  0  0
 21 51  1  0  0  0
 22 52  1  0  0  0
 23 53  1  0  0  0
 24 54  1  0  0  0
 24 55  1  0  0  0
 25 56  1  0  0  0
 26 57  1  0  0  0
 26 58  1  0  0  0
 30 59  1  0  0  0
 33 60  1  0  0  0
 33 61  1  0  0  0
 33 62  1  0  0  0
 34 63  1  0  0  0
 34 64  1  0  0  0
 34 65  1  0  0  0
 36 66  1  0  0  0
 36 67  1  0  0  0
 36 68  1  0  0  0
 37 69  1  0  0  0
 37 70  1  0  0  0
 37 71  1  0  0  0
 38 72  1  0  0  0
 38 73  1  0  0  0
 38 74  1  0  0  0
 39 75  1  0  0  0
 39 76  1  0  0  0
 39 77  1  0  0  0
 40 78  1  0  0  0
 40 79  1  0  0  0
 40 80  1  0  0  0
M  END
$$$$
