1a4q_ligand
  -I-interpret- 

 56 57  0  0  0  0  0  0  0  0999 V2000
   -2.4160   58.3090   -5.4640 C   0  0  0  0  0
   -3.3710   59.0640   -5.3230 O   0  0  0  0  0
   -1.5990   58.1890   -4.5610 O   0  0  0  0  0
   -2.3440   57.4690   -6.6730 C   0  0  0  0  0
   -1.4120   56.5180   -6.7960 C   0  0  0  0  0
   -1.3790   55.6270   -8.0080 C   0  0  0  0  0
   -2.2120   56.1910   -9.1560 C   0  0  0  0  0
   -2.4990   55.1260  -10.1100 N   0  0  0  0  0
   -2.1370   55.1410  -11.4020 C   0  0  0  0  0
   -1.5630   56.1000  -11.8890 O   0  0  0  0  0
   -2.4430   53.8710  -12.2170 C   0  0  0  0  0
   -3.5280   56.7290   -8.5990 C   0  0  0  0  0
   -3.2930   57.6710   -7.5870 O   0  0  0  0  0
   -4.2550   57.5050   -9.6740 C   0  0  0  0  0
   -3.7430   58.2630   -9.9970 O   0  0  0  0  0
   -5.3800   57.0300  -10.1910 N   0  0  0  0  0
   -5.9710   57.8100  -11.3010 C   0  0  0  0  0
   -5.3950   57.4170  -12.6650 C   0  0  0  0  0
   -6.0130   58.3010  -13.7300 C   0  0  0  0  0
   -5.5860   59.6390  -13.8840 C   0  0  0  0  0
   -7.0380   57.8160  -14.5550 C   0  0  0  0  0
   -6.2020   60.4850  -14.8230 C   0  0  0  0  0
   -7.6510   58.6560  -15.4900 C   0  0  0  0  0
   -7.2490   59.9920  -15.6230 C   0  0  0  0  0
   -6.0810   55.8520   -9.6850 C   0  0  0  0  0
   -6.9620   56.1710   -8.4650 C   0  0  0  0  0
   -7.8370   57.4310   -8.6020 C   0  0  0  0  0
   -0.0140   55.4590   -8.4300 N   0  3  0  0  0
   -3.9128   59.0442   -6.1152 H   0  0  0  0  0
   -0.6683   56.3869   -6.0099 H   0  0  0  0  0
   -1.8130   54.6651   -7.7349 H   0  0  0  0  0
   -1.6627   56.9915   -9.6515 H   0  0  0  0  0
   -3.0114   54.3118   -9.7710 H   0  0  0  0  0
   -3.0770   54.1291  -13.0652 H   0  0  0  0  0
   -1.5097   53.4386  -12.5777 H   0  0  0  0  0
   -2.9582   53.1493  -11.5830 H   0  0  0  0  0
   -4.0932   55.8713   -8.2342 H   0  0  0  0  0
   -5.7445   58.8625  -11.1306 H   0  0  0  0  0
   -7.0427   57.6117  -11.3184 H   0  0  0  0  0
   -5.6230   56.3720  -12.8748 H   0  0  0  0  0
   -4.3128   57.5467  -12.6599 H   0  0  0  0  0
   -4.7707   60.0193  -13.2686 H   0  0  0  0  0
   -7.3589   56.7780  -14.4669 H   0  0  0  0  0
   -5.8700   61.5176  -14.9306 H   0  0  0  0  0
   -8.4497   58.2676  -16.1219 H   0  0  0  0  0
   -7.7444   60.6449  -16.3416 H   0  0  0  0  0
   -5.3329   55.1210   -9.3782 H   0  0  0  0  0
   -6.7277   55.4782  -10.4788 H   0  0  0  0  0
   -6.2866   56.3477   -7.6280 H   0  0  0  0  0
   -7.6424   55.3286   -8.3406 H   0  0  0  0  0
   -7.1983   58.2998   -8.7610 H   0  0  0  0  0
   -8.5106   57.3134   -9.4508 H   0  0  0  0  0
   -8.4192   57.5683   -7.6908 H   0  0  0  0  0
    0.5354   55.0820   -7.6577 H   0  0  0  0  0
    0.0196   54.8139   -9.2194 H   0  0  0  0  0
    0.3674   56.3623   -8.7110 H   0  0  0  0  0
  4  1  1  0  0  0
  1  3  2  0  0  0
  1  2  1  0  0  0
  4 13  1  0  0  0
  4  5  2  0  0  0
  5  6  1  0  0  0
  6 28  1  0  0  0
  6  7  1  0  0  0
  7 12  1  0  0  0
  7  8  1  0  0  0
  8  9  1  0  0  0
  9 11  1  0  0  0
  9 10  2  0  0  0
 12 14  1  0  0  0
 12 13  1  0  0  0
 14 16  1  0  0  0
 14 15  2  0  0  0
 16 25  1  0  0  0
 16 17  1  0  0  0
 17 18  1  0  0  0
 18 19  1  0  0  0
 19 21  4  0  0  0
 19 20  4  0  0  0
 20 22  4  0  0  0
 22 24  4  0  0  0
 24 23  4  0  0  0
 23 21  4  0  0  0
 25 26  1  0  0  0
 26 27  1  0  0  0
  2 29  1  0  0  0
  5 30  1  0  0  0
  6 31  1  0  0  0
  7 32  1  0  0  0
  8 33  1  0  0  0
 11 34  1  0  0  0
 11 35  1  0  0  0
 11 36  1  0  0  0
 12 37  1  0  0  0
 17 38  1  0  0  0
 17 39  1  0  0  0
 18 40  1  0  0  0
 18 41  1  0  0  0
 20 42  1  0  0  0
 21 43  1  0  0  0
 22 44  1  0  0  0
 23 45  1  0  0  0
 24 46  1  0  0  0
 25 47  1  0  0  0
 25 48  1  0  0  0
 26 49  1  0  0  0
 26 50  1  0  0  0
 27 51  1  0  0  0
 27 52  1  0  0  0
 27 53  1  0  0  0
 28 54  1  0  0  0
 28 55  1  0  0  0
 28 56  1  0  0  0
M  END
$$$$
