1a4r_ligand
  -I-interpret- 

 44 46  0  0  0  0  0  0  0  0999 V2000
  102.4860   24.8700   -2.9090 N   0  0  0  0  0
  101.5220   25.8860   -2.4280 P   0  0  0  0  0
  100.9830   25.4700   -1.0790 O   0  0  0  0  0
  100.3500   26.2500   -3.2730 O   0  0  0  0  0
  102.4090   27.1490   -2.1360 O   0  0  0  0  0
  102.9800   27.8190   -0.7750 P   0  0  0  0  0
  103.9320   26.8730   -0.1570 O   0  0  0  0  0
  101.8500   28.3180    0.0570 O   0  0  0  0  0
  103.7180   29.0170   -1.4980 O   0  0  0  0  0
  104.8640   28.8490   -2.3670 C   0  0  0  0  0
  105.9930   29.8990   -2.1000 C   0  0  0  0  0
  105.4820   31.1830   -2.4390 O   0  0  0  0  0
  106.4630   30.0620   -0.6570 C   0  0  0  0  0
  107.8730   30.1930   -0.5940 O   0  0  0  0  0
  105.7350   31.2660   -0.0960 C   0  0  0  0  0
  106.2980   31.8890    1.0590 O   0  0  0  0  0
  105.5820   32.1390   -1.3490 C   0  0  0  0  0
  104.3150   32.9430   -1.5100 N   0  0  0  0  0
  103.0000   32.5360   -1.3540 C   0  0  0  0  0
  102.0730   33.4460   -1.5560 N   0  0  0  0  0
  102.8070   34.5960   -1.8890 C   0  0  0  0  0
  102.3660   35.9710   -2.2360 C   0  0  0  0  0
  101.2060   36.3850   -2.3060 O   0  0  0  0  0
  103.4480   36.8880   -2.5220 N   0  0  0  0  0
  104.8390   36.5560   -2.4810 C   0  0  0  0  0
  105.7330   37.5170   -2.7670 N   0  0  0  0  0
  105.2800   35.2710   -2.1570 N   0  0  0  0  0
  104.2050   34.3230   -1.8660 C   0  0  0  0  0
  102.3461   24.4228   -3.8150 H   0  0  0  0  0
  103.2899   24.6173   -2.3343 H   0  0  0  0  0
  101.7132   25.2272   -0.5049 H   0  0  0  0  0
  101.3127   28.9201   -0.4630 H   0  0  0  0  0
  104.5240   28.9810   -3.3942 H   0  0  0  0  0
  105.2802   27.8591   -2.1800 H   0  0  0  0  0
  106.8356   29.5303   -2.6850 H   0  0  0  0  0
  106.2304   29.1813   -0.0583 H   0  0  0  0  0
  108.1433   30.2939    0.3216 H   0  0  0  0  0
  104.7831   31.0079    0.3681 H   0  0  0  0  0
  105.7511   32.6344    1.3178 H   0  0  0  0  0
  106.4086   32.8483   -1.3078 H   0  0  0  0  0
  102.7467   31.5125   -1.0776 H   0  0  0  0  0
  103.1999   37.8452   -2.7722 H   0  0  0  0  0
  106.7310   37.3074   -2.7472 H   0  0  0  0  0
  105.4138   38.4563   -3.0040 H   0  0  0  0  0
  2  1  1  0  0  0
  2  3  1  0  0  0
  2  4  2  0  0  0
  2  5  1  0  0  0
  5  6  1  0  0  0
  6  7  2  0  0  0
  6  8  1  0  0  0
  6  9  1  0  0  0
  9 10  1  0  0  0
 10 11  1  0  0  0
 11 12  1  0  0  0
 11 13  1  0  0  0
 12 17  1  0  0  0
 13 14  1  0  0  0
 13 15  1  0  0  0
 15 16  1  0  0  0
 17 15  1  0  0  0
 17 18  1  0  0  0
 18 19  4  0  0  0
 18 28  4  0  0  0
 19 20  4  0  0  0
 20 21  4  0  0  0
 21 22  1  0  0  0
 21 28  4  0  0  0
 22 23  2  0  0  0
 22 24  1  0  0  0
 24 25  1  0  0  0
 25 26  1  0  0  0
 25 27  2  0  0  0
 27 28  1  0  0  0
  1 29  1  0  0  0
  1 30  1  0  0  0
  3 31  1  0  0  0
  8 32  1  0  0  0
 10 33  1  0  0  0
 10 34  1  0  0  0
 11 35  1  0  0  0
 13 36  1  0  0  0
 14 37  1  0  0  0
 15 38  1  0  0  0
 16 39  1  0  0  0
 17 40  1  0  0  0
 19 41  1  0  0  0
 24 42  1  0  0  0
 26 43  1  0  0  0
 26 44  1  0  0  0
M  END
$$$$
