1a5h_ligand
  -I-interpret- 

 56 58  0  0  0  0  0  0  0  0999 V2000
    8.4810   35.8070   50.2760 C   0  0  0  0  0
    9.1000   35.4640   51.5700 C   0  0  0  0  0
   10.4600   35.7740   51.8880 C   0  0  0  0  0
   11.0140   35.4690   53.1420 C   0  0  0  0  0
    8.3130   34.8240   52.5680 C   0  0  0  0  0
    8.8980   34.5100   53.8360 C   0  0  0  0  0
   10.2610   34.8430   54.1380 C   0  0  0  0  0
   10.8760   34.5370   55.4290 C   0  0  0  0  0
   10.1400   34.3220   56.5320 N   0  0  0  0  0
   12.1890   34.4820   55.5170 N   0  0  0  0  0
    9.9760   40.5170   49.8350 C   0  0  0  0  0
    9.4930   41.6470   50.7110 C   0  0  0  0  0
   10.4320   42.3560   51.5290 C   0  0  0  0  0
   10.0100   43.4220   52.3620 C   0  0  0  0  0
    8.1300   42.0650   50.7780 C   0  0  0  0  0
    7.7150   43.1270   51.6200 C   0  0  0  0  0
    8.6350   43.8260   52.4220 C   0  0  0  0  0
    8.1710   44.9550   53.2970 C   0  0  0  0  0
    6.9990   44.8800   53.9500 N   0  0  0  0  0
    8.9180   46.0720   53.4570 N   0  0  0  0  0
    8.6350   36.9440   49.5610 C   0  0  0  0  0
    8.9920   36.6130   48.1270 C   0  0  0  0  0
    8.9120   37.7020   47.0690 C   0  0  0  0  0
    7.8270   38.7330   47.2910 C   0  0  0  0  0
    8.0340   39.6540   48.5120 C   0  0  0  0  0
    9.2990   39.4260   49.3370 C   0  0  0  0  0
    9.2100   38.2110   50.1790 C   0  0  0  0  0
    9.4500   38.2990   51.3520 O   0  0  0  0  0
    7.4295   35.8736   50.5555 H   0  0  0  0  0
    8.9508   35.0772   49.6167 H   0  0  0  0  0
   11.0828   36.2599   51.1370 H   0  0  0  0  0
   12.0541   35.7264   53.3423 H   0  0  0  0  0
    7.2710   34.5744   52.3680 H   0  0  0  0  0
    8.2939   34.0059   54.5903 H   0  0  0  0  0
   10.5992   34.1199   57.4201 H   0  0  0  0  0
    9.1220   34.3609   56.4814 H   0  0  0  0  0
   12.6320   34.2786   56.4130 H   0  0  0  0  0
   10.6632   40.0213   50.5207 H   0  0  0  0  0
   10.1735   41.0600   48.9108 H   0  0  0  0  0
   11.4841   42.0718   51.5103 H   0  0  0  0  0
   10.7466   43.9465   52.9706 H   0  0  0  0  0
    7.3879   41.5536   50.1649 H   0  0  0  0  0
    6.6621   43.4075   51.6465 H   0  0  0  0  0
    6.4140   44.0499   53.8542 H   0  0  0  0  0
    8.5863   46.8254   54.0593 H   0  0  0  0  0
    9.8127   46.1605   52.9753 H   0  0  0  0  0
    7.6432   37.3955   49.5851 H   0  0  0  0  0
    8.2530   35.8727   47.8204 H   0  0  0  0  0
   10.0453   36.3343   48.1600 H   0  0  0  0  0
    8.6861   37.2066   46.1248 H   0  0  0  0  0
    9.8622   38.2354   47.0948 H   0  0  0  0  0
    6.9036   38.1817   47.4683 H   0  0  0  0  0
    7.8226   39.3765   46.4113 H   0  0  0  0  0
    7.1983   39.4553   49.1829 H   0  0  0  0  0
    8.1132   40.6659   48.1146 H   0  0  0  0  0
   10.0585   39.1943   48.5903 H   0  0  0  0  0
  1  2  1  0  0  0
 21  1  1  0  0  0
  2  3  4  0  0  0
  2  5  4  0  0  0
  3  4  4  0  0  0
  4  7  4  0  0  0
  5  6  4  0  0  0
  6  7  4  0  0  0
  7  8  1  0  0  0
  8  9  1  0  0  0
  8 10  2  0  0  0
 11 12  1  0  0  0
 26 11  1  0  0  0
 12 13  4  0  0  0
 12 15  4  0  0  0
 13 14  4  0  0  0
 14 17  4  0  0  0
 15 16  4  0  0  0
 16 17  4  0  0  0
 17 18  1  0  0  0
 18 19  2  0  0  0
 18 20  1  0  0  0
 22 21  1  0  0  0
 21 27  1  0  0  0
 23 22  1  0  0  0
 24 23  1  0  0  0
 25 24  1  0  0  0
 25 26  1  0  0  0
 26 27  1  0  0  0
 27 28  2  0  0  0
  1 29  1  0  0  0
  1 30  1  0  0  0
  3 31  1  0  0  0
  4 32  1  0  0  0
  5 33  1  0  0  0
  6 34  1  0  0  0
  9 35  1  0  0  0
  9 36  1  0  0  0
 10 37  1  0  0  0
 11 38  1  0  0  0
 11 39  1  0  0  0
 13 40  1  0  0  0
 14 41  1  0  0  0
 15 42  1  0  0  0
 16 43  1  0  0  0
 19 44  1  0  0  0
 20 45  1  0  0  0
 20 46  1  0  0  0
 21 47  1  0  0  0
 22 48  1  0  0  0
 22 49  1  0  0  0
 23 50  1  0  0  0
 23 51  1  0  0  0
 24 52  1  0  0  0
 24 53  1  0  0  0
 25 54  1  0  0  0
 25 55  1  0  0  0
 26 56  1  0  0  0
M  END
$$$$
