1a5v_ligand
  -I-interpret- 

 34 35  0  0  0  0  0  0  0  0999 V2000
   37.2550   26.6020   58.5650 C   0  0  0  0  0
   36.7650   25.3980   58.1140 C   0  0  0  0  0
   37.6340   24.3720   57.8150 C   0  0  0  0  0
   38.9990   24.5560   57.9280 C   0  0  0  0  0
   39.4930   25.7680   58.3650 C   0  0  0  0  0
   38.6250   26.8000   58.6820 C   0  0  0  0  0
   39.1290   28.0210   59.1110 C   0  0  0  0  0
   40.5050   28.1920   59.2220 C   0  0  0  0  0
   41.3660   27.1500   58.9090 C   0  0  0  0  0
   40.8580   25.9420   58.4820 C   0  0  0  0  0
   36.9840   22.7880   57.2870 S   0  0  0  0  0
   36.2700   22.2070   58.3790 O   0  0  0  0  0
   38.0650   21.9290   56.9130 O   0  0  0  0  0
   36.1060   22.9840   56.1740 O   0  0  0  0  0
   38.2810   29.0120   59.4140 N   0  0  0  0  0
   38.6060   30.3040   59.4440 C   0  0  0  0  0
   39.7330   30.7300   59.1980 O   0  0  0  0  0
   37.4790   31.2650   59.8130 C   0  0  0  0  0
   43.1540   27.3440   59.0480 S   0  0  0  0  0
   43.7810   26.2680   58.3560 O   0  0  0  0  0
   43.5280   27.3100   60.4180 O   0  0  0  0  0
   43.5620   28.5970   58.4910 O   0  0  0  0  0
   36.3780   27.6000   58.8850 O   0  0  0  0  0
   35.6910   25.2563   57.9935 H   0  0  0  0  0
   39.6830   23.7466   57.6728 H   0  0  0  0  0
   40.9082   29.1480   59.5561 H   0  0  0  0  0
   41.5343   25.1232   58.2364 H   0  0  0  0  0
   36.8678   22.0800   59.1194 H   0  0  0  0  0
   37.3182   28.7602   59.6377 H   0  0  0  0  0
   37.7516   31.8136   60.7146 H   0  0  0  0  0
   37.3184   31.9662   58.9941 H   0  0  0  0  0
   36.5650   30.6991   59.9930 H   0  0  0  0  0
   43.4986   25.4345   58.7396 H   0  0  0  0  0
   35.4796   27.2918   58.7457 H   0  0  0  0  0
  1 23  1  0  0  0
  1  6  4  0  0  0
  1  2  4  0  0  0
  2  3  4  0  0  0
  3 11  1  0  0  0
  3  4  4  0  0  0
  4  5  4  0  0  0
  5 10  4  0  0  0
  5  6  4  0  0  0
  6  7  4  0  0  0
  7 15  1  0  0  0
  7  8  4  0  0  0
  8  9  4  0  0  0
  9 19  1  0  0  0
  9 10  4  0  0  0
 19 22  2  0  0  0
 19 21  2  0  0  0
 19 20  1  0  0  0
 15 16  1  0  0  0
 16 18  1  0  0  0
 16 17  2  0  0  0
 11 14  2  0  0  0
 11 13  2  0  0  0
 11 12  1  0  0  0
  2 24  1  0  0  0
  4 25  1  0  0  0
  8 26  1  0  0  0
 10 27  1  0  0  0
 12 28  1  0  0  0
 15 29  1  0  0  0
 18 30  1  0  0  0
 18 31  1  0  0  0
 18 32  1  0  0  0
 20 33  1  0  0  0
 23 34  1  0  0  0
M  END
$$$$
