@<TRIPOS>MOLECULE
toluene.pdb
 15 15 0 0 0
SMALL
GASTEIGER

@<TRIPOS>ATOM
      1 C           2.8660    0.5000    0.0000 C.ar    1  UNL1       -0.0504
      2 C           2.0000    0.0000    0.0000 C.ar    1  UNL1       -0.0588
      3 H           1.4630    0.3100    0.0000 H       1  UNL1        0.0620
      4 C           3.7320    0.0000    0.0000 C.ar    1  UNL1       -0.0588
      5 H           4.2690    0.3100    0.0000 H       1  UNL1        0.0620
      6 C           2.8660    1.5000    0.0000 C.3     1  UNL1       -0.0397
      7 H           3.4860    1.5000    0.0000 H       1  UNL1        0.0278
      8 H           2.8660    2.1200    0.0000 H       1  UNL1        0.0278
      9 H           2.2460    1.5000    0.0000 H       1  UNL1        0.0278
     10 C           2.0000   -1.0000    0.0000 C.ar    1  UNL1       -0.0615
     11 H           1.4630   -1.3100    0.0000 H       1  UNL1        0.0618
     12 C           3.7320   -1.0000    0.0000 C.ar    1  UNL1       -0.0615
     13 H           4.2690   -1.3100    0.0000 H       1  UNL1        0.0618
     14 C           2.8660   -1.5000    0.0000 C.ar    1  UNL1       -0.0617
     15 H           2.8660   -2.1200    0.0000 H       1  UNL1        0.0618
@<TRIPOS>BOND
     1     1     2   ar
     2     1     4   ar
     3     1     6    1
     4     2    10   ar
     5     2     3    1
     6     4    12   ar
     7     4     5    1
     8     6     7    1
     9     6     8    1
    10     6     9    1
    11    10    14   ar
    12    10    11    1
    13    12    14   ar
    14    12    13    1
    15    14    15    1
