@<TRIPOS>MOLECULE
17124-1
 46 47 0 0 0
SMALL
GASTEIGER
****
Schrodinger Suite 2021-3.
@<TRIPOS>ATOM
      1 C          24.0816   12.3916   30.2423 C.3     1  UNL1       -0.0306
      2 C          23.3500   11.0657   30.4628 C.3     1  UNL1        0.0884
      3 O          22.2121   11.3274   31.2794 O.3     1  UNL1       -0.4757
      4 C          21.4127   10.2773   31.6976 C.ar    1  UNL1        0.2362
      5 N          21.7567    9.0266   31.2850 N.ar    1  UNL1       -0.1966
      6 C          20.9811    7.9971   31.6572 C.ar    1  UNL1        0.1305
      7 C          19.8706    8.1421   32.4769 C.ar    1  UNL1        0.0007
      8 C          19.5217    9.4143   32.8937 C.ar    1  UNL1        0.0506
      9 N          18.3827    9.4958   33.6863 N.pl3   1  UNL1       -0.3567
     10 C          20.2923   10.5202   32.5003 C.ar    1  UNL1        0.1337
     11 C          19.9657   11.8905   32.8774 C.1     1  UNL1        0.1064
     12 N          19.7135   12.9814   33.1712 N.1     1  UNL1       -0.1906
     13 N          21.4435    6.8153   31.1146 N.am    1  UNL1       -0.2700
     14 C          20.8639    5.6146   31.0308 C.2     1  UNL1        0.2227
     15 O          19.7396    5.3500   31.4512 O.2     1  UNL1       -0.2751
     16 C          21.6499    4.5466   30.2798 C.3     1  UNL1        0.0530
     17 C          23.0247    4.2587   30.8770 C.ar    1  UNL1        0.0065
     18 C          24.1218    5.0797   30.5737 C.ar    1  UNL1        0.1250
     19 O          23.8940    6.1755   29.7600 O.3     1  UNL1       -0.4948
     20 C          24.9260    7.1419   29.5741 C.3     1  UNL1        0.0788
     21 C          25.3756    4.7488   31.1028 C.ar    1  UNL1       -0.0022
     22 C          25.5283    3.6468   31.9432 C.ar    1  UNL1        0.0629
     23 BR         27.2648    3.2511   32.6230 Br      1  UNL1       -0.0464
     24 C          24.4329    2.8399   32.2701 C.ar    1  UNL1        0.1345
     25 C          23.1819    3.1565   31.7231 C.ar    1  UNL1       -0.0117
     26 O          24.6457    1.7801   33.1306 O.3     1  UNL1       -0.4940
     27 C          23.7084    0.7066   33.1601 C.3     1  UNL1        0.0788
     28 H          24.9658   12.2529   29.6210 H       1  UNL1        0.0262
     29 H          23.4330   13.1123   29.7438 H       1  UNL1        0.0262
     30 H          24.3974   12.8270   31.1900 H       1  UNL1        0.0262
     31 H          23.0415   10.6380   29.5063 H       1  UNL1        0.0694
     32 H          24.0190   10.3518   30.9488 H       1  UNL1        0.0694
     33 H          19.2757    7.2952   32.7747 H       1  UNL1        0.0671
     34 H          17.9031    8.6482   33.9732 H       1  UNL1        0.1424
     35 H          17.9977   10.4016   33.9433 H       1  UNL1        0.1424
     36 H          22.3516    6.9230   30.6906 H       1  UNL1        0.1562
     37 H          21.0717    3.6287   30.2152 H       1  UNL1        0.0408
     38 H          21.7630    4.9135   29.2646 H       1  UNL1        0.0408
     39 H          24.5476    7.9548   28.9541 H       1  UNL1        0.0660
     40 H          25.2471    7.5788   30.5210 H       1  UNL1        0.0660
     41 H          25.7903    6.7169   29.0616 H       1  UNL1        0.0660
     42 H          26.2494    5.3384   30.8749 H       1  UNL1        0.0666
     43 H          22.3237    2.5419   31.9463 H       1  UNL1        0.0658
     44 H          24.0776   -0.0691   33.8306 H       1  UNL1        0.0660
     45 H          22.7306    1.0102   33.5310 H       1  UNL1        0.0660
     46 H          23.5885    0.2529   32.1771 H       1  UNL1        0.0660
@<TRIPOS>BOND
     1     1     2    1
     2     1    28    1
     3     1    29    1
     4     1    30    1
     5     2     3    1
     6     2    31    1
     7     2    32    1
     8     3     4    1
     9     4    10   ar
    10     4     5   ar
    11     5     6   ar
    12     6     7   ar
    13     6    13    1
    14     7     8   ar
    15     7    33    1
    16     8     9    1
    17     8    10   ar
    18     9    34    1
    19     9    35    1
    20    10    11    1
    21    11    12    3
    22    13    14   am
    23    13    36    1
    24    14    15    2
    25    14    16    1
    26    16    17    1
    27    16    37    1
    28    16    38    1
    29    17    25   ar
    30    17    18   ar
    31    18    19    1
    32    18    21   ar
    33    19    20    1
    34    20    39    1
    35    20    40    1
    36    20    41    1
    37    21    22   ar
    38    21    42    1
    39    22    23    1
    40    22    24   ar
    41    24    25   ar
    42    24    26    1
    43    25    43    1
    44    26    27    1
    45    27    44    1
    46    27    45    1
    47    27    46    1
