BMI_original
                    3D
 Structure written by MMmdl.
 49 53  0  0  1  0            999 V2000
    3.5880   -3.8720   18.7280 C   0  0  0  0  0  0
    3.5640   -4.6860   17.8050 O   0  0  0  0  0  0
    4.4390   -3.6970   22.4420 N   0  0  0  0  0  0
    3.2300   -2.5700   18.5530 N   0  0  0  0  0  0
    4.0200   -3.3010   21.1000 C   0  0  0  0  0  0
    3.6210   -1.9260   20.8290 C   0  0  0  0  0  0
    3.2470   -1.6400   19.5650 C   0  0  0  0  0  0
    5.5900   -3.0520   23.0670 C   0  0  0  0  0  0
    8.7300   -4.2120   21.2890 C   0  0  0  0  0  0
    7.5740   -3.4910   21.5870 C   0  0  0  0  0  0
    9.1190   -5.2420   22.1430 C   0  0  0  0  0  0
    6.8370   -3.8130   22.7250 C   0  0  0  0  0  0
    7.2040   -4.8140   23.5650 N   0  0  0  0  0  0
    8.3320   -5.5080   23.2630 C   0  0  0  0  0  0
    3.9980   -4.2070   20.0900 C   0  0  0  0  0  0
    7.2440  -10.8060   23.2540 C   0  0  0  0  0  0
    5.6950   -9.7500   21.5420 C   0  0  0  0  0  0
    5.5100   -8.4690   22.0690 C   0  0  0  0  0  0
    6.1650  -10.8260   22.4090 N   0  0  0  0  0  0
    5.6080  -12.0700   22.5380 C   0  0  0  0  0  0
    6.2600  -12.8180   23.3980 N   0  0  0  0  0  0
    7.2550  -12.0630   23.8400 C   0  0  0  0  0  0
    5.0590   -7.4530   21.2190 C   0  0  0  0  0  0
    4.3840   -6.5480   19.3310 N   0  0  0  0  0  0
    4.4060   -5.6270   20.3510 C   0  0  0  0  0  0
    4.8030   -6.1320   21.4940 N   0  0  0  0  0  0
    4.8030   -7.7490   19.8560 C   0  0  0  0  0  0
    4.9850   -9.0260   19.3230 C   0  0  0  0  0  0
    5.4370  -10.0180   20.1980 C   0  0  0  0  0  0
    4.7110   -9.3300   17.8800 C   0  0  0  0  0  0
    3.9210   -4.4350   22.9490 H   0  0  0  0  0  0
    2.9460   -2.3350   17.6130 H   0  0  0  0  0  0
    3.6240   -1.1710   21.6060 H   0  0  0  0  0  0
    2.9280   -0.6600   19.2300 H   0  0  0  0  0  0
    5.4570   -3.0400   24.1490 H   0  0  0  0  0  0
    5.6770   -2.0290   22.7010 H   0  0  0  0  0  0
    9.3150   -3.9760   20.4100 H   0  0  0  0  0  0
    7.2510   -2.6860   20.9410 H   0  0  0  0  0  0
   10.0090   -5.8220   21.9430 H   0  0  0  0  0  0
    8.6110   -6.3040   23.9440 H   0  0  0  0  0  0
    7.8800   -9.9350   23.3580 H   0  0  0  0  0  0
    5.7110   -8.2640   23.1100 H   0  0  0  0  0  0
    4.7270  -12.3400   21.9640 H   0  0  0  0  0  0
    7.9730  -12.4180   24.5710 H   0  0  0  0  0  0
    4.1020   -6.3260   18.3820 H   0  0  0  0  0  0
    5.5910  -11.0220   19.8250 H   0  0  0  0  0  0
    4.9200  -10.3810   17.6840 H   0  0  0  0  0  0
    3.6660   -9.1190   17.6560 H   0  0  0  0  0  0
    5.3500   -8.7090   17.2510 H   0  0  0  0  0  0
  1  2  2  0  0  0
  1  4  1  0  0  0
  1 15  1  0  0  0
  3  5  1  0  0  0
  3  8  1  0  0  0
  3 31  1  0  0  0
  4  7  1  0  0  0
  4 32  1  0  0  0
  5  6  1  0  0  0
  5 15  2  0  0  0
  6  7  2  0  0  0
  6 33  1  0  0  0
  7 34  1  0  0  0
  8 12  1  0  0  0
  8 35  1  0  0  0
  8 36  1  0  0  0
  9 11  2  0  0  0
  9 10  1  0  0  0
  9 37  1  0  0  0
 10 12  2  0  0  0
 10 38  1  0  0  0
 11 14  1  0  0  0
 11 39  1  0  0  0
 12 13  1  0  0  0
 13 14  2  0  0  0
 14 40  1  0  0  0
 15 25  1  0  0  0
 16 19  1  0  0  0
 16 22  2  0  0  0
 16 41  1  0  0  0
 17 18  1  0  0  0
 17 19  1  0  0  0
 17 29  2  0  0  0
 18 23  2  0  0  0
 18 42  1  0  0  0
 19 20  1  0  0  0
 20 21  2  0  0  0
 20 43  1  0  0  0
 21 22  1  0  0  0
 22 44  1  0  0  0
 23 26  1  0  0  0
 23 27  1  0  0  0
 24 25  1  0  0  0
 24 27  1  0  0  0
 24 45  1  0  0  0
 25 26  2  0  0  0
 27 28  2  0  0  0
 28 29  1  0  0  0
 28 30  1  0  0  0
 29 46  1  0  0  0
 30 47  1  0  0  0
 30 48  1  0  0  0
 30 49  1  0  0  0
M  END
> <s_m_entry_id>
1

> <s_m_entry_name>
BMI_original.1

> <s_pdb_PDB_TITLE>
BMI

> <i_pdb_PDB_Model>
1

> <s_pdb_PDB_format_version>
3.0

> <s_m_Source_Path>
/home/mwieder/Work/Projects/transformato/data/2OJ9-original

> <s_m_Source_File>
BMI_original.pdb

> <i_m_Source_File_Index>
1

$$$$
